units(length='cm', time='s', quantity='mol', act_energy='kcal/mol')

ideal_gas(name='gas',
          elements="H D T C Ci O Oi N Ne Ar He Si S F Cl Br I X",
          species="""N2          Ne          H2(2)       CO(3)
                     CO2(4)      H2O(5)      CH2O(6)     HCOOH(7)
                     CH3OH(8)    HCOOCH3(9)  CH4(24)     C2H4O(72)
                     C2H4O2(73)  CCO(143)    CC(144)""",
          reactions='gas-*',
          transport='Mix',
          initial_state=state(temperature=300.0, pressure=OneAtm))

ideal_interface(name='surface1',
                elements="H D T C Ci O Oi N Ne Ar He Si S F Cl Br I X",
                species="""X(1)        H*(10)      O*(11)      OH*(12)
                          H2O*(13)    CO*(14)     CO2*(15)    HCO*(16)
                          HCOO*(17)   COOH*(18)   HCOOH*(19)  CH2O*(20)
                          CH3O*(21)   CH3O2*(22)  CH3OH*(23)  CH3X(35)
                          CH2X(36)    CH3OX(49)   SX(59)      CH4O2X(84)
                          C2H3OX(99)  SX(104)     SX(107)     SX(112)
                          SX(113)     SX(114)     SX(115)     SX(123)
                          SX(136)     C2H6X(141)  C2H4X(145)  SX(148)
                          C2H5X(150)  SX(156)""",
                site_density=2.943e-09,
                phases="gas",
          reactions='surface1-*',
                initial_state=state(temperature=300.0, pressure=OneAtm))

#-------------------------------------------------------------------------------
# Element data
#-------------------------------------------------------------------------------

element(symbol='Ci', atomic_mass=13.003)
element(symbol='D', atomic_mass=2.014)
element(symbol='Oi', atomic_mass=17.999)
element(symbol='T', atomic_mass=3.016)
element(symbol='X', atomic_mass=195.083)
#-------------------------------------------------------------------------------
# Species data
#-------------------------------------------------------------------------------

species(name='N2',
        atoms='N:2',
        thermo=(NASA([200.00, 1000.00],
                     [ 3.53101000E+00, -1.23661000E-04, -5.02999000E-07,
                       2.43531000E-09, -1.40881000E-12, -1.04698000E+03,
                       2.96747000E+00]),
                NASA([1000.00, 6000.00],
                     [ 2.95258000E+00,  1.39690000E-03, -4.92632000E-07,
                       7.86010000E-11, -4.60755000E-15, -9.23949000E+02,
                       5.87189000E+00])),
        transport=gas_transport(geom='linear',
                                diam=3.621,
                                well_depth=97.53,
                                polar=1.76,
                                rot_relax=4.0))

species(name='Ne',
        atoms='Ne:1',
        thermo=(NASA([200.00, 1000.00],
                     [ 2.50000000E+00,  0.00000000E+00,  0.00000000E+00,
                       0.00000000E+00,  0.00000000E+00, -7.45375000E+02,
                       3.35532000E+00]),
                NASA([1000.00, 6000.00],
                     [ 2.50000000E+00,  0.00000000E+00,  0.00000000E+00,
                       0.00000000E+00,  0.00000000E+00, -7.45375000E+02,
                       3.35532000E+00])),
        transport=gas_transport(geom='atom',
                                diam=3.758,
                                well_depth=148.6))

species(name='H2(2)',
        atoms='H:2',
        thermo=(NASA([100.00, 1959.07],
                     [ 3.43536405E+00,  2.12710954E-04, -2.78626405E-07,
                       3.40268235E-10, -7.76034644E-14, -1.03135984E+03,
                      -3.90841705E+00]),
                NASA([1959.07, 5000.00],
                     [ 2.78817306E+00,  5.87631545E-04,  1.59014816E-07,
                      -5.52747855E-11,  4.34317420E-15, -5.96148537E+02,
                       1.12689783E-01])),
        transport=gas_transport(geom='linear',
                                diam=2.92,
                                well_depth=38.0,
                                polar=0.79,
                                rot_relax=280.0))

species(name='CO(3)',
        atoms='C:1 O:1',
        thermo=(NASA([100.00, 1571.64],
                     [ 3.56837976E+00, -8.52123452E-04,  2.48917230E-06,
                      -1.56330523E-09,  3.13593773E-13, -1.42842549E+04,
                       3.57912263E+00]),
                NASA([1571.64, 5000.00],
                     [ 2.91307187E+00,  1.64657103E-03, -6.88611376E-07,
                       1.21036622E-10, -7.84012380E-15, -1.41808873E+04,
                       6.71042732E+00])),
        transport=gas_transport(geom='linear',
                                diam=3.65,
                                well_depth=98.1,
                                polar=1.95,
                                rot_relax=1.8))

species(name='CO2(4)',
        atoms='C:1 O:2',
        thermo=(NASA([100.00, 978.22],
                     [ 3.28084117E+00,  2.50189715E-03,  8.08177460E-06,
                      -1.20508412E-08,  4.66534141E-12, -4.84008302E+04,
                       6.00082639E+00]),
                NASA([978.22, 5000.00],
                     [ 4.67428675E+00,  2.60960725E-03, -9.85670715E-07,
                       1.95709322E-10, -1.49832475E-14, -4.89512221E+04,
                      -2.11084487E+00])),
        transport=gas_transport(geom='linear',
                                diam=3.763,
                                well_depth=244.001,
                                polar=2.65,
                                rot_relax=2.1))

species(name='H2O(5)',
        atoms='H:2 O:1',
        thermo=(NASA([100.00, 1130.23],
                     [ 4.05763525E+00, -7.87929311E-04,  2.90875350E-06,
                      -1.47516305E-09,  2.12833045E-13, -3.02815866E+04,
                      -3.11361962E-01]),
                NASA([1130.23, 5000.00],
                     [ 2.84325449E+00,  2.75107891E-03, -7.81027841E-07,
                       1.07242800E-10, -5.79385414E-15, -2.99586146E+04,
                       5.91039696E+00])),
        transport=gas_transport(geom='nonlinear',
                                diam=2.605,
                                well_depth=572.402,
                                dipole=1.844,
                                rot_relax=4.0))

species(name='CH2O(6)',
        atoms='C:1 H:2 O:1',
        thermo=(NASA([100.00, 1070.44],
                     [ 4.12927639E+00, -4.08399426E-03,  2.03228699E-05,
                      -1.83523445E-08,  5.37972286E-12, -1.44294639E+04,
                       3.22419050E+00]),
                NASA([1070.44, 5000.00],
                     [ 2.21173333E+00,  7.94264203E-03, -3.34192218E-06,
                       6.28469457E-10, -4.40429851E-14, -1.42974495E+04,
                       1.13048480E+01])),
        transport=gas_transport(geom='nonlinear',
                                diam=3.59,
                                well_depth=498.002,
                                rot_relax=2.0))

species(name='HCOOH(7)',
        atoms='C:1 H:2 O:2',
        thermo=(NASA([100.00, 993.73],
                     [ 3.76240461E+00, -9.43842929E-04,  3.38778215E-05,
                      -4.04982854E-08,  1.43986289E-11, -4.68212101E+04,
                       7.63276454E+00]),
                NASA([993.73, 5000.00],
                     [ 5.64500539E+00,  7.55181569E-03, -3.20851119E-06,
                       6.58918277E-10, -5.05054580E-14, -4.79890034E+04,
                      -5.43105750E+00])),
        transport=gas_transport(geom='nonlinear',
                                diam=3.626,
                                well_depth=481.8,
                                dipole=1.7,
                                rot_relax=1.0))

species(name='CH3OH(8)',
        atoms='C:1 H:4 O:1',
        thermo=(NASA([100.00, 1035.75],
                     [ 3.84006534E+00,  1.38238232E-03,  1.91668497E-05,
                      -2.01570326E-08,  6.39109198E-12, -2.56083088E+04,
                       5.90976989E+00]),
                NASA([1035.75, 5000.00],
                     [ 2.79182778E+00,  1.15828107E-02, -4.51553381E-06,
                       8.21210111E-10, -5.67066057E-14, -2.57211609E+04,
                       9.41070164E+00])),
        transport=gas_transport(geom='nonlinear',
                                diam=3.626,
                                well_depth=481.802,
                                rot_relax=1.0))

species(name='HCOOCH3(9)',
        atoms='C:2 H:4 O:2',
        thermo=(NASA([100.00, 1141.78],
                     [ 3.28122732E+00,  1.13181174E-02,  1.84475690E-05,
                      -2.41942952E-08,  7.75127773E-12, -4.46725563E+04,
                       1.20363923E+01]),
                NASA([1141.78, 5000.00],
                     [ 4.90992838E+00,  1.87529123E-02, -8.58325276E-06,
                       1.66846567E-09, -1.18611452E-13, -4.59010212E+04,
                       2.11989513E-01])),
        transport=gas_transport(geom='nonlinear',
                                diam=5.234,
                                well_depth=377.356))

species(name='CH4(24)',
        atoms='C:1 H:4',
        thermo=(NASA([100.00, 1084.13],
                     [ 4.20541221E+00, -5.35553877E-03,  2.51122092E-05,
                      -2.13761398E-08,  5.97518145E-12, -1.01619432E+04,
                      -9.21268377E-01]),
                NASA([1084.13, 5000.00],
                     [ 9.08283160E-01,  1.14540571E-02, -4.57172207E-06,
                       8.29187907E-10, -5.66311813E-14, -9.71998208E+03,
                       1.39929956E+01])),
        transport=gas_transport(geom='nonlinear',
                                diam=3.746,
                                well_depth=141.4,
                                polar=2.6,
                                rot_relax=13.0))

species(name='C2H4O(72)',
        atoms='C:2 H:4 O:1',
        thermo=(NASA([100.00, 1028.81],
                     [ 3.57992389E+00,  5.18983566E-03,  2.26897464E-05,
                      -2.73742603E-08,  9.28479509E-12, -2.13697374E+04,
                       8.96971595E+00]),
                NASA([1028.81, 5000.00],
                     [ 4.08563942E+00,  1.39061188E-02, -5.59370137E-06,
                       1.04609256E-09, -7.38738451E-14, -2.20391347E+04,
                       3.76801219E+00])),
        transport=gas_transport(geom='nonlinear',
                                diam=3.97,
                                well_depth=436.001,
                                rot_relax=2.0))

species(name='C2H4O2(73)',
        atoms='C:2 H:4 O:2',
        thermo=(NASA([100.00, 1020.00],
                     [ 3.21749513E+00,  1.02435359E-02,  2.71477951E-05,
                      -3.76383814E-08,  1.35870294E-11, -5.35456812E+04,
                       1.20525041E+01]),
                NASA([1020.00, 5000.00],
                     [ 6.36116319E+00,  1.55129776E-02, -6.47991225E-06,
                       1.25443664E-09, -9.10578485E-14, -5.51024221E+04,
                      -7.66352509E+00])),
        transport=gas_transport(geom='nonlinear',
                                diam=5.643,
                                well_depth=452.392))

species(name='CCO(143)',
        atoms='C:2 H:6 O:1',
        thermo=(NASA([100.00, 984.01],
                     [ 3.24024359E+00,  1.04861501E-02,  2.63960796E-05,
                      -3.69284414E-08,  1.36706620E-11, -2.99902837E+04,
                       1.11433588E+01]),
                NASA([984.01, 5000.00],
                     [ 5.68500259E+00,  1.61312248E-02, -5.96359716E-06,
                       1.08895782E-09, -7.69609058E-14, -3.12258467E+04,
                      -4.44523546E+00])),
        transport=gas_transport(geom='nonlinear',
                                diam=4.53,
                                well_depth=362.6,
                                rot_relax=1.5))

species(name='CC(144)',
        atoms='C:2 H:6',
        thermo=(NASA([100.00, 1012.42],
                     [ 3.72239297E+00,  1.65083768E-03,  3.44175556E-05,
                      -3.76858263E-08,  1.24450672E-11, -1.15575901E+04,
                       4.68247977E+00]),
                NASA([1012.42, 5000.00],
                     [ 2.82848231E+00,  1.73040573E-02, -6.73334270E-06,
                       1.23742030E-09, -8.65676460E-14, -1.19978079E+04,
                       5.93811856E+00])),
        transport=gas_transport(geom='nonlinear',
                                diam=4.302,
                                well_depth=252.301,
                                rot_relax=1.5))

species(name='X(1)',
        atoms='X:1',
        thermo=(NASA([100.00, 1554.82],
                     [ 7.10117715E-03, -4.25598384E-05,  8.98477066E-08,
                      -7.80141360E-11,  2.32449881E-14, -8.76090874E-01,
                      -3.11203064E-02]),
                NASA([1554.82, 5000.00],
                     [ 1.60306443E-01, -2.52244785E-04,  1.14186028E-07,
                      -1.21481826E-11,  3.85868180E-16, -7.08135149E+01,
                      -9.09565610E-01])))

species(name='H*(10)',
        atoms='H:1 X:1',
        thermo=(NASA([100.00, 952.91],
                     [-3.80966063E-01,  5.47229457E-03,  2.60910036E-06,
                      -9.64958252E-09,  4.63945090E-12, -1.40559765E+03,
                       1.01725767E+00]),
                NASA([952.91, 5000.00],
                     [ 2.80339860E+00, -5.41050545E-04,  4.99510034E-07,
                      -7.54968543E-11,  3.06776450E-15, -2.34634794E+03,
                      -1.59436902E+01])))

species(name='O*(11)',
        atoms='O:1 X:1',
        thermo=(NASA([100.00, 888.25],
                     [-7.59017636E-01,  1.89869077E-02, -3.82475968E-05,
                       3.43561585E-08, -1.13975882E-11, -2.18355961E+04,
                       1.76019009E+00]),
                NASA([888.25, 5000.00],
                     [ 1.89894768E+00,  2.03293393E-03, -1.19975369E-06,
                       2.32677753E-10, -1.53505836E-14, -2.21111469E+04,
                      -9.64110497E+00])))

species(name='OH*(12)',
        atoms='H:1 O:1 X:1',
        thermo=(NASA([100.00, 914.57],
                     [-1.29515836E+00,  3.36478908E-02, -7.07727875E-05,
                       6.54329182E-08, -2.19416678E-11, -2.16453839E+04,
                       4.37632418E+00]),
                NASA([914.57, 5000.00],
                     [ 2.43521813E+00,  4.64634420E-03, -2.40007917E-06,
                       4.26400576E-10, -2.60648697E-14, -2.17971591E+04,
                      -1.03868471E+01])))

species(name='H2O*(13)',
        atoms='H:2 O:1 X:1',
        thermo=(NASA([100.00, 912.84],
                     [-1.34343269E+00,  3.66699454E-02, -7.99495483E-05,
                       7.74145984E-08, -2.68674957E-11, -3.23490291E+04,
                       1.10238776E+01]),
                NASA([912.84, 5000.00],
                     [ 1.12167713E+00,  8.16623847E-03, -4.02348955E-06,
                       7.20398993E-10, -4.51423960E-14, -3.20615590E+04,
                       3.39566400E+00])))

species(name='CO*(14)',
        atoms='C:1 O:1 X:1',
        thermo=(NASA([100.00, 891.33],
                     [-1.38215864E+00,  3.75307614E-02, -8.29766920E-05,
                       8.09713637E-08, -2.85476529E-11, -2.25369682E+04,
                       4.35453826E+00]),
                NASA([891.33, 5000.00],
                     [ 1.38095096E+00,  8.05711171E-03, -4.64304315E-06,
                       8.91159509E-10, -5.90038943E-14, -2.23513124E+04,
                      -4.85342807E+00])))

species(name='CO2*(15)',
        atoms='C:1 O:2 X:1',
        thermo=(NASA([100.00, 882.30],
                     [-1.54688067E+00,  4.08799850E-02, -8.54283791E-05,
                       8.19962433E-08, -2.88107091E-11, -4.74892369E+04,
                       1.37822616E+01]),
                NASA([882.30, 5000.00],
                     [ 1.80867470E+00,  9.73037135E-03, -5.37629923E-06,
                       1.03592900E-09, -6.95145639E-14, -4.74610601E+04,
                       1.52909180E+00])))

species(name='HCO*(16)',
        atoms='C:1 H:1 O:1 X:1',
        thermo=(NASA([100.00, 873.23],
                     [-1.43677340E+00,  3.69240673E-02, -7.17893267E-05,
                       6.73516651E-08, -2.35170561E-11, -2.16948217E+04,
                       8.27554043E+00]),
                NASA([873.23, 5000.00],
                     [ 1.83275028E+00,  1.00779666E-02, -5.28538698E-06,
                       1.01353294E-09, -6.85195200E-14, -2.18132907E+04,
                      -4.46363301E+00])))

species(name='HCOO*(17)',
        atoms='C:1 H:1 O:2 X:1',
        thermo=(NASA([100.00, 833.21],
                     [-1.79147981E+00,  4.37070503E-02, -7.60363610E-05,
                       6.72476837E-08, -2.29566297E-11, -4.81907116E+04,
                       7.22934274E+00]),
                NASA([833.21, 5000.00],
                     [ 3.32775375E+00,  1.20451169E-02, -6.27976978E-06,
                       1.22727415E-09, -8.50513292E-14, -4.87978235E+04,
                      -1.50578712E+01])))

species(name='COOH*(18)',
        atoms='C:1 H:1 O:2 X:1',
        thermo=(NASA([100.00, 816.25],
                     [-1.63421116E+00,  3.88306403E-02, -6.43003910E-05,
                       5.38380320E-08, -1.75481260E-11, -4.63557104E+04,
                       1.22627298E+01]),
                NASA([816.25, 5000.00],
                     [ 3.87905987E+00,  9.05727206E-03, -4.52243049E-06,
                       8.78584217E-10, -6.09445362E-14, -4.71639471E+04,
                      -1.26538740E+01])))

species(name='HCOOH*(19)',
        atoms='C:1 H:2 O:2 X:1',
        thermo=(NASA([100.00, 950.50],
                     [ 3.66947264E+00, -3.78168182E-03,  5.53440322E-05,
                      -7.04188911E-08,  2.67796993E-11, -4.73069170E+04,
                      -8.38241076E+00]),
                NASA([950.50, 5000.00],
                     [ 8.66750786E+00,  3.45647885E-03, -6.94260485E-07,
                       1.78271014E-10, -1.93222851E-14, -4.95341364E+04,
                      -3.89593103E+01])))

species(name='CH2O*(20)',
        atoms='C:1 H:2 O:1 X:1',
        thermo=(NASA([100.00, 879.32],
                     [-1.46698135E+00,  4.13873230E-02, -8.87622285E-05,
                       9.10119307E-08, -3.36611049E-11, -2.03002406E+04,
                       1.57178744E+01]),
                NASA([879.32, 5000.00],
                     [-8.92899577E-01,  1.66196002E-02, -8.71593190E-06,
                       1.66815956E-09, -1.12503352E-13, -1.95446458E+04,
                       1.78926725E+01])))

species(name='CH3O*(21)',
        atoms='C:1 H:3 O:1 X:1',
        thermo=(NASA([100.00, 857.66],
                     [-1.68422382E+00,  4.28023839E-02, -7.50784061E-05,
                       7.03682882E-08, -2.50920295E-11, -2.23137054E+04,
                       7.76423884E+00]),
                NASA([857.66, 5000.00],
                     [ 1.14794153E+00,  1.71344746E-02, -8.39641261E-06,
                       1.59808634E-09, -1.08976260E-13, -2.23412774E+04,
                      -2.79302712E+00])))

species(name='CH3O2*(22)',
        atoms='C:1 H:3 O:2 X:1',
        thermo=(NASA([100.00, 932.26],
                     [ 3.21916257E+00,  6.71721986E-03,  3.72271881E-05,
                      -5.73633986E-08,  2.36261117E-11, -4.74893741E+04,
                      -6.14518354E+00]),
                NASA([932.26, 5000.00],
                     [ 1.03102382E+01,  3.04296689E-03,  9.70765706E-08,
                      -3.19266985E-11, -2.13472427E-15, -4.99740067E+04,
                      -4.60928897E+01])))

species(name='CH3OH*(23)',
        atoms='C:1 H:4 O:1 X:1',
        thermo=(NASA([100.00, 850.41],
                     [-1.64008367E+00,  4.09974522E-02, -6.66157976E-05,
                       6.12100178E-08, -2.17728194E-11, -3.05087366E+04,
                       1.38244831E+01]),
                NASA([850.41, 5000.00],
                     [ 1.01833863E+00,  1.82966810E-02, -8.58980118E-06,
                       1.62232225E-09, -1.10733252E-13, -3.05921761E+04,
                       3.59772254E+00])))

species(name='CH3X(35)',
        atoms='C:1 H:3 X:1',
        thermo=(NASA([100.00, 848.29],
                     [-1.21091198E+00,  2.92391592E-02, -4.49014681E-05,
                       3.86015162E-08, -1.30363673E-11, -1.29905394E+02,
                       6.80942220E+00]),
                NASA([848.29, 5000.00],
                     [ 1.62292340E+00,  1.12987005E-02, -5.08315331E-06,
                       9.46829750E-10, -6.42882292E-14, -4.45976309E+02,
                      -5.42509209E+00])))

species(name='CH2X(36)',
        atoms='C:1 H:2 X:1',
        thermo=(NASA([100.00, 1199.84],
                     [-1.02006573E+00,  2.03778532E-02, -2.17291024E-05,
                       1.15868496E-08, -2.38469835E-12,  1.16284959E+04,
                       2.99160380E+00]),
                NASA([1199.84, 5000.00],
                     [ 3.89285615E+00,  3.99892046E-03, -1.25227802E-06,
                       2.09081024E-10, -1.39642205E-14,  1.04495766E+04,
                      -2.16053780E+01])))

species(name='CH3OX(49)',
        atoms='C:1 H:3 O:1 X:1',
        thermo=(NASA([100.00, 813.99],
                     [-1.68229859E+00,  3.97246450E-02, -5.96095580E-05,
                       4.86902639E-08, -1.58039875E-11, -2.91607546E+04,
                       8.26680049E+00]),
                NASA([813.99, 5000.00],
                     [ 3.25575302E+00,  1.30435517E-02, -5.99163026E-06,
                       1.13139480E-09, -7.77158616E-14, -2.98846477E+04,
                      -1.40486760E+01])))

species(name='SX(59)',
        atoms='C:2 H:3 O:2 X:1',
        thermo=(NASA([100.00, 1039.03],
                     [ 2.71975626E+00,  2.09414211E-02,  6.19261762E-06,
                      -2.18924760E-08,  9.16826921E-12, -4.68973608E+04,
                      -7.23226033E+00]),
                NASA([1039.03, 5000.00],
                     [ 9.24589624E+00,  1.24761418E-02, -5.63565695E-06,
                       1.12726687E-09, -8.31635012E-14, -4.91527609E+04,
                      -4.32942198E+01])))

species(name='CH4O2X(84)',
        atoms='C:1 H:4 O:2 X:1',
        thermo=(NASA([100.00, 961.78],
                     [ 2.51548801E+00,  2.72655478E-02, -1.57721388E-05,
                      -3.63378783E-09,  4.55749810E-12, -4.95909863E+04,
                       6.65622135E+00]),
                NASA([961.78, 5000.00],
                     [ 1.07628301E+01,  5.61564778E-03, -1.73666122E-06,
                       3.13464050E-10, -2.34469882E-14, -5.17625023E+04,
                      -3.58527602E+01])))

species(name='C2H3OX(99)',
        atoms='C:2 H:3 O:1 X:1',
        thermo=(NASA([100.00, 959.41],
                     [ 3.43716545E+00,  5.75792839E-03,  2.83338685E-05,
                      -3.94571271E-08,  1.51206988E-11, -2.87271208E+04,
                      -8.72712513E+00]),
                NASA([959.41, 5000.00],
                     [ 6.61785442E+00,  9.20331131E-03, -3.17281917E-06,
                       5.86102054E-10, -4.31698015E-14, -3.01063182E+04,
                      -2.79473739E+01])))

species(name='SX(104)',
        atoms='C:2 H:3 O:2 X:1',
        thermo=(NASA([100.00, 954.06],
                     [ 3.08948674E+00,  1.06688098E-02,  3.09802039E-05,
                      -4.88646181E-08,  1.96738980E-11, -4.97649195E+04,
                      -4.73077099E+00]),
                NASA([954.06, 5000.00],
                     [ 9.21900719E+00,  8.51376966E-03, -2.64737065E-06,
                       4.98581262E-10, -3.88024117E-14, -5.20060177E+04,
                      -3.96294254E+01])))

species(name='SX(107)',
        atoms='C:2 H:4 O:1 X:1',
        thermo=(NASA([100.00, 1258.42],
                     [ 3.23905150E+00,  1.45283828E-02,  5.08932829E-07,
                      -5.82815368E-09,  1.98751135E-12, -2.27339209E+04,
                       5.45573246E+00]),
                NASA([1258.42, 5000.00],
                     [ 4.93028076E+00,  1.46081837E-02, -6.08901290E-06,
                       1.11217435E-09, -7.56504996E-14, -2.35915503E+04,
                      -4.80854693E+00])))

species(name='SX(112)',
        atoms='C:2 H:4 O:2 X:1',
        thermo=(NASA([100.00, 1098.76],
                     [ 2.87744687E+00,  1.96117529E-02,  4.68160241E-06,
                      -1.54708445E-08,  5.92263842E-12, -5.49099630E+04,
                       8.53289718E+00]),
                NASA([1098.76, 5000.00],
                     [ 6.84062398E+00,  1.67776673E-02, -7.27673822E-06,
                       1.38791346E-09, -9.81918477E-14, -5.64807243E+04,
                      -1.41450958E+01])))

species(name='SX(113)',
        atoms='C:2 H:5 O:2 X:1',
        thermo=(NASA([100.00, 2238.97],
                     [ 2.64292170E+00,  2.85176547E-02, -1.56626602E-05,
                       3.97864021E-09, -3.98788877E-13, -5.33936163E+04,
                      -5.22546351E-01]),
                NASA([2238.97, 5000.00],
                     [ 1.11461273E+01,  1.33263670E-02, -5.48523858E-06,
                       9.48250899E-10, -6.04200456E-14, -5.72012991E+04,
                      -4.83993133E+01])))

species(name='SX(114)',
        atoms='C:2 H:5 O:1 X:1',
        thermo=(NASA([100.00, 1474.10],
                     [ 2.75804498E+00,  2.41831231E-02, -1.14989676E-05,
                       1.90005519E-09,  6.10901746E-14, -2.74653255E+04,
                      -9.22426849E+00]),
                NASA([1474.10, 5000.00],
                     [ 7.25830731E+00,  1.54480466E-02, -6.14798132E-06,
                       1.07993338E-09, -7.11534894E-14, -2.91698060E+04,
                      -3.39629158E+01])))

species(name='SX(115)',
        atoms='C:2 H:5 O:1 X:1',
        thermo=(NASA([100.00, 1021.32],
                     [ 3.09971589E+00,  1.40637856E-02,  1.74457826E-05,
                      -2.79056629E-08,  1.03346505E-11, -2.76547437E+04,
                      -9.20733556E+00]),
                NASA([1021.32, 5000.00],
                     [ 6.07041144E+00,  1.64412695E-02, -6.62544279E-06,
                       1.23998484E-09, -8.78233669E-14, -2.89923573E+04,
                      -2.71796428E+01])))

species(name='SX(123)',
        atoms='C:2 H:6 O:1 X:1',
        thermo=(NASA([100.00, 979.22],
                     [ 3.01267113E+00,  1.52612139E-02,  1.95743191E-05,
                      -3.27776520E-08,  1.27834865E-11, -3.56627782E+04,
                      -3.22287751E+00]),
                NASA([979.22, 5000.00],
                     [ 6.70652453E+00,  1.60175784E-02, -5.85682083E-06,
                       1.06139283E-09, -7.47870173E-14, -3.71458745E+04,
                      -2.48450213E+01])))

species(name='SX(136)',
        atoms='C:2 H:3 O:2 X:1',
        thermo=(NASA([100.00, 980.41],
                     [ 3.08488121E+00,  8.53808882E-03,  4.39530149E-05,
                      -6.23293772E-08,  2.37928893E-11, -4.68334313E+04,
                      -3.92000859E+00]),
                NASA([980.41, 5000.00],
                     [ 9.63598833E+00,  1.09801480E-02, -4.41313850E-06,
                       9.07071494E-10, -7.08041401E-14, -4.95198915E+04,
                      -4.25453299E+01])))

species(name='C2H6X(141)',
        atoms='C:2 H:6 X:1',
        thermo=(NASA([100.00, 826.24],
                     [-1.73427106E+00,  4.32690591E-02, -6.15063171E-05,
                       5.72998216E-08, -2.14165113E-11, -1.40653293E+04,
                       1.90798114E+01]),
                NASA([826.24, 5000.00],
                     [-4.51989795E-01,  2.66242884E-02, -1.23405442E-05,
                       2.34091684E-09, -1.61301634E-13, -1.39209741E+04,
                       1.52941501E+01])))

species(name='C2H4X(145)',
        atoms='C:2 H:4 X:1',
        thermo=(NASA([100.00, 922.95],
                     [-1.51743931E+00,  3.54364123E-02, -3.81055204E-05,
                       2.35706408E-08, -6.09805893E-12,  6.52002960E+03,
                       5.77181517E+00]),
                NASA([922.95, 5000.00],
                     [ 2.83447723E+00,  1.65755495E-02, -7.45246150E-06,
                       1.42931782E-09, -1.00637301E-13,  5.71670781E+03,
                      -1.48747371E+01])))

species(name='SX(148)',
        atoms='C:2 H:5 O:1 X:1',
        thermo=(NASA([100.00, 977.78],
                     [ 3.02510043E+00,  1.44942801E-02,  2.01661246E-05,
                      -3.41817480E-08,  1.34838620E-11, -3.46197157E+04,
                      -8.59267499E+00]),
                NASA([977.78, 5000.00],
                     [ 7.34626471E+00,  1.39046536E-02, -5.14338394E-06,
                       9.47754472E-10, -6.78690768E-14, -3.62815944E+04,
                      -3.35197421E+01])))

species(name='C2H5X(150)',
        atoms='C:2 H:5 X:1',
        thermo=(NASA([100.00, 803.89],
                     [-1.64624251E+00,  3.89625153E-02, -4.31124447E-05,
                       2.97071407E-08, -8.80199673E-12, -4.11358121E+03,
                       9.27319404E+00]),
                NASA([803.89, 5000.00],
                     [ 1.97599919E+00,  2.09382399E-02, -9.47914535E-06,
                       1.81392334E-09, -1.27205813E-13, -4.69593516E+03,
                      -7.41117691E+00])))

species(name='SX(156)',
        atoms='C:2 H:6 O:2 X:1',
        thermo=(NASA([100.00, 1200.52],
                     [ 2.20356746E+00,  3.89088449E-02, -3.32792543E-05,
                       1.56512382E-08, -3.06413484E-12, -5.62501513E+04,
                       1.19900556E+01]),
                NASA([1200.52, 5000.00],
                     [ 8.36884164E+00,  1.83668330E-02, -7.61286225E-06,
                       1.39830813E-09, -9.60606594E-14, -5.77304583E+04,