units(length='cm', time='s', quantity='mol', act_energy='kcal/mol')

ideal_gas(name='gas',
          elements="H D T C Ci O Oi N Ne Ar He Si S F Cl Br I X",
          species="""N2          Ne          H2(2)       CO(3)
                     CO2(4)      H2O(5)      CH2O(6)     HCOOH(7)
                     CH3OH(8)    HCOOCH3(9)  CH4(32)     C2H4O(136)
                     S(138)      CCO(181)    CC(182)""",
          reactions='gas-*',
          transport='Mix',
          initial_state=state(temperature=300.0, pressure=OneAtm))

ideal_interface(name='surface1',
                elements="H D T C Ci O Oi N Ne Ar He Si S F Cl Br I X",
                species="""X(1)        H*(10)      O*(11)      OH*(12)
                          H2O*(13)    CO*(14)     CO2*(15)    HCO*(16)
                          HCOO*(17)   COOH*(18)   HCOOH*(19)  CH2O*(20)
                          CH3O*(21)   CH3O2*(22)  CH3OH*(23)  CH3X(33)
                          CH2X(35)    CH3OX(49)   SX(59)      SX(62)
                          SX(76)      CH4O2X(82)  C2H3OX(97)  SX(100)
                          SX(102)     SX(105)     SX(110)     SX(111)
                          SX(112)     SX(115)     SX(121)     SX(131)
                          C2HOX(141)  SX(143)     SX(147)     SX(174)
                          C2H6X(179)  C2H5X(188)""",
                site_density=2.943e-09,
                phases="gas",
          reactions='surface1-*',
                initial_state=state(temperature=300.0, pressure=OneAtm))

#-------------------------------------------------------------------------------
# Element data
#-------------------------------------------------------------------------------

element(symbol='Ci', atomic_mass=13.003)
element(symbol='D', atomic_mass=2.014)
element(symbol='Oi', atomic_mass=17.999)
element(symbol='T', atomic_mass=3.016)
element(symbol='X', atomic_mass=195.083)
#-------------------------------------------------------------------------------
# Species data
#-------------------------------------------------------------------------------

species(name='N2',
        atoms='N:2',
        thermo=(NASA([200.00, 1000.00],
                     [ 3.53101000E+00, -1.23661000E-04, -5.02999000E-07,
                       2.43531000E-09, -1.40881000E-12, -1.04698000E+03,
                       2.96747000E+00]),
                NASA([1000.00, 6000.00],
                     [ 2.95258000E+00,  1.39690000E-03, -4.92632000E-07,
                       7.86010000E-11, -4.60755000E-15, -9.23949000E+02,
                       5.87189000E+00])),
        transport=gas_transport(geom='linear',
                                diam=3.621,
                                well_depth=97.53,
                                polar=1.76,
                                rot_relax=4.0))

species(name='Ne',
        atoms='Ne:1',
        thermo=(NASA([200.00, 1000.00],
                     [ 2.50000000E+00,  0.00000000E+00,  0.00000000E+00,
                       0.00000000E+00,  0.00000000E+00, -7.45375000E+02,
                       3.35532000E+00]),
                NASA([1000.00, 6000.00],
                     [ 2.50000000E+00,  0.00000000E+00,  0.00000000E+00,
                       0.00000000E+00,  0.00000000E+00, -7.45375000E+02,
                       3.35532000E+00])),
        transport=gas_transport(geom='atom',
                                diam=3.758,
                                well_depth=148.6))

species(name='H2(2)',
        atoms='H:2',
        thermo=(NASA([100.00, 1959.07],
                     [ 3.43536395E+00,  2.12711841E-04, -2.78628417E-07,
                       3.40269813E-10, -7.76038552E-14, -1.03135983E+03,
                      -3.90841666E+00]),
                NASA([1959.07, 5000.00],
                     [ 2.78818374E+00,  5.87617671E-04,  1.59021311E-07,
                      -5.52760891E-11,  4.34326921E-15, -5.96154838E+02,
                       1.12626481E-01])),
        transport=gas_transport(geom='linear',
                                diam=2.92,
                                well_depth=38.0,
                                polar=0.79,
                                rot_relax=280.0))

species(name='CO(3)',
        atoms='C:1 O:1',
        thermo=(NASA([100.00, 1571.63],
                     [ 3.56838045E+00, -8.52130174E-04,  2.48918996E-06,
                      -1.56332160E-09,  3.13598612E-13, -1.42842550E+04,
                       3.57912002E+00]),
                NASA([1571.63, 5000.00],
                     [ 2.91304980E+00,  1.64660253E-03, -6.88627283E-07,
                       1.21040018E-10, -7.84038409E-15, -1.41808757E+04,
                       6.71055590E+00])),
        transport=gas_transport(geom='linear',
                                diam=3.65,
                                well_depth=98.1,
                                polar=1.95,
                                rot_relax=1.8))

species(name='CO2(4)',
        atoms='C:1 O:2',
        thermo=(NASA([100.00, 978.23],
                     [ 3.28083527E+00,  2.50196842E-03,  8.08151784E-06,
                      -1.20504991E-08,  4.66519201E-12, -4.84008299E+04,
                       6.00084740E+00]),
                NASA([978.23, 5000.00],
                     [ 4.67430878E+00,  2.60956959E-03, -9.85648902E-07,
                       1.95704154E-10, -1.49828179E-14, -4.89512313E+04,
                      -2.11096873E+00])),
        transport=gas_transport(geom='linear',
                                diam=3.763,
                                well_depth=244.001,
                                polar=2.65,
                                rot_relax=2.1))

species(name='H2O(5)',
        atoms='H:2 O:1',
        thermo=(NASA([100.00, 1130.24],
                     [ 4.05763553E+00, -7.87932479E-04,  2.90876387E-06,
                      -1.47517542E-09,  2.12837837E-13, -3.02815866E+04,
                      -3.11362977E-01]),
                NASA([1130.24, 5000.00],
                     [ 2.84325256E+00,  2.75108205E-03, -7.81029590E-07,
                       1.07243203E-10, -5.79388693E-15, -2.99586137E+04,
                       5.91040795E+00])),
        transport=gas_transport(geom='nonlinear',
                                diam=2.605,
                                well_depth=572.402,
                                dipole=1.844,
                                rot_relax=4.0))

species(name='CH2O(6)',
        atoms='C:1 H:2 O:1',
        thermo=(NASA([100.00, 1070.44],
                     [ 4.12927411E+00, -4.08396791E-03,  2.03227805E-05,
                      -1.83522333E-08,  5.37967780E-12, -1.44294638E+04,
                       3.22419869E+00]),
                NASA([1070.44, 5000.00],
                     [ 2.21174574E+00,  7.94262147E-03, -3.34191055E-06,
                       6.28466749E-10, -4.40427629E-14, -1.42974549E+04,
                       1.13047778E+01])),
        transport=gas_transport(geom='nonlinear',
                                diam=3.59,
                                well_depth=498.002,
                                rot_relax=2.0))

species(name='HCOOH(7)',
        atoms='C:1 H:2 O:2',
        thermo=(NASA([100.00, 993.73],
                     [ 3.76241304E+00, -9.43944209E-04,  3.38781827E-05,
                      -4.04987608E-08,  1.43988338E-11, -4.68212105E+04,
                       7.63273441E+00]),
                NASA([993.73, 5000.00],
                     [ 5.64497172E+00,  7.55187295E-03, -3.20854421E-06,
                       6.58926079E-10, -5.05061051E-14, -4.79889892E+04,
                      -5.43086794E+00])),
        transport=gas_transport(geom='nonlinear',
                                diam=3.626,
                                well_depth=481.8,
                                dipole=1.7,
                                rot_relax=1.0))

species(name='CH3OH(8)',
        atoms='C:1 H:4 O:1',
        thermo=(NASA([100.00, 1035.75],
                     [ 3.84006499E+00,  1.38238646E-03,  1.91668353E-05,
                      -2.01570143E-08,  6.39108434E-12, -2.56083088E+04,
                       5.90977116E+00]),
                NASA([1035.75, 5000.00],
                     [ 2.79182946E+00,  1.15828079E-02, -4.51553221E-06,
                       8.21209736E-10, -5.67065748E-14, -2.57211616E+04,
                       9.41069220E+00])),
        transport=gas_transport(geom='nonlinear',
                                diam=3.626,
                                well_depth=481.802,
                                rot_relax=1.0))

species(name='HCOOCH3(9)',
        atoms='C:2 H:4 O:2',
        thermo=(NASA([100.00, 1141.77],
                     [ 3.28123241E+00,  1.13180603E-02,  1.84477548E-05,
                      -2.41945150E-08,  7.75136217E-12, -4.46725565E+04,
                       1.20363738E+01]),
                NASA([1141.77, 5000.00],
                     [ 4.90989177E+00,  1.87529714E-02, -8.58328566E-06,
                       1.66847323E-09, -1.18612066E-13, -4.59010048E+04,
                       2.12197655E-01])),
        transport=gas_transport(geom='nonlinear',
                                diam=5.234,
                                well_depth=377.356))

species(name='CH4(32)',
        atoms='C:1 H:4',
        thermo=(NASA([100.00, 1084.13],
                     [ 4.20541194E+00, -5.35553558E-03,  2.51121985E-05,
                      -2.13761265E-08,  5.97517614E-12, -1.01619432E+04,
                      -9.21267377E-01]),
                NASA([1084.13, 5000.00],
                     [ 9.08284759E-01,  1.14540544E-02, -4.57172059E-06,
                       8.29187562E-10, -5.66311530E-14, -9.71998278E+03,
                       1.39929866E+01])),
        transport=gas_transport(geom='nonlinear',
                                diam=3.746,
                                well_depth=141.4,
                                polar=2.6,
                                rot_relax=13.0))

species(name='C2H4O(136)',
        atoms='C:2 H:4 O:1',
        thermo=(NASA([100.00, 1028.81],
                     [ 3.57991902E+00,  5.18989319E-03,  2.26895459E-05,
                      -2.73740033E-08,  9.28468747E-12, -2.13697372E+04,
                       8.96973342E+00]),
                NASA([1028.81, 5000.00],
                     [ 4.08566191E+00,  1.39060811E-02, -5.59367978E-06,
                       1.04608750E-09, -7.38734269E-14, -2.20391443E+04,
                       3.76788528E+00])),
        transport=gas_transport(geom='nonlinear',
                                diam=3.97,
                                well_depth=436.001,
                                rot_relax=2.0))

species(name='S(138)',
        atoms='C:2 H:4 O:2',
        thermo=(NASA([100.00, 1020.01],
                     [ 3.21748162E+00,  1.02436960E-02,  2.71472340E-05,
                      -3.76376572E-08,  1.35867240E-11, -5.35456806E+04,
                       1.20525524E+01]),
                NASA([1020.01, 5000.00],
                     [ 6.36122331E+00,  1.55128763E-02, -6.47985421E-06,
                       1.25442300E-09, -9.10567212E-14, -5.51024477E+04,
                      -7.66386419E+00])),
        transport=gas_transport(geom='nonlinear',
                                diam=5.643,
                                well_depth=452.392))

species(name='CCO(181)',
        atoms='C:2 H:6 O:1',
        thermo=(NASA([100.00, 984.00],
                     [ 3.24025905E+00,  1.04859636E-02,  2.63967490E-05,
                      -3.69293294E-08,  1.36710479E-11, -2.99902844E+04,
                       1.11433036E+01]),
                NASA([984.00, 5000.00],
                     [ 5.68494336E+00,  1.61313259E-02, -5.96365562E-06,
                       1.08897166E-09, -7.69620549E-14, -3.12258219E+04,
                      -4.44490219E+00])),
        transport=gas_transport(geom='nonlinear',
                                diam=4.53,
                                well_depth=362.6,
                                rot_relax=1.5))

species(name='CC(182)',
        atoms='C:2 H:6',
        thermo=(NASA([100.00, 1012.42],
                     [ 3.72238710E+00,  1.65090756E-03,  3.44173095E-05,
                      -3.76855068E-08,  1.24449316E-11, -1.15575899E+04,
                       4.68250079E+00]),
                NASA([1012.42, 5000.00],
                     [ 2.82850765E+00,  1.73040145E-02, -6.73331813E-06,
                       1.23741452E-09, -8.65671675E-14, -1.19978187E+04,
                       5.93797572E+00])),
        transport=gas_transport(geom='nonlinear',
                                diam=4.302,
                                well_depth=252.301,
                                rot_relax=1.5))

species(name='X(1)',
        atoms='X:1',
        thermo=(NASA([100.00, 1554.81],
                     [ 7.10134229E-03, -4.25614410E-05,  8.98519485E-08,
                      -7.80181004E-11,  2.32461701E-14, -8.76099090E-01,
                      -3.11209254E-02]),
                NASA([1554.81, 5000.00],
                     [ 1.60301482E-01, -2.52237676E-04,  1.14182424E-07,
                      -1.21474113E-11,  3.85808919E-16, -7.08109168E+01,
                      -9.09536736E-01])))

species(name='H*(10)',
        atoms='H:1 X:1',
        thermo=(NASA([100.00, 952.91],
                     [-3.80965716E-01,  5.47229033E-03,  2.60911590E-06,
                      -9.64960366E-09,  4.63946033E-12, -1.40557040E+03,
                       1.01725644E+00]),
                NASA([952.91, 5000.00],
                     [ 2.80339744E+00, -5.41048540E-04,  4.99508866E-07,
                      -7.54965761E-11,  3.06774129E-15, -2.34632019E+03,
                      -1.59436837E+01])))

species(name='O*(11)',
        atoms='O:1 X:1',
        thermo=(NASA([100.00, 888.26],
                     [-7.59010605E-01,  1.89868186E-02, -3.82472548E-05,
                       3.43556678E-08, -1.13973560E-11, -2.18356105E+04,
                       1.76016526E+00]),
                NASA([888.26, 5000.00],
                     [ 1.89893001E+00,  2.03296518E-03, -1.19977223E-06,
                       2.32682221E-10, -1.53509598E-14, -2.21111539E+04,
                      -9.64100628E+00])))

species(name='OH*(12)',
        atoms='H:1 O:1 X:1',
        thermo=(NASA([100.00, 914.58],
                     [-1.29514698E+00,  3.36477486E-02, -7.07722520E-05,
                       6.54321668E-08, -2.19413208E-11, -2.16453914E+04,
                       4.37628387E+00]),
                NASA([914.58, 5000.00],
                     [ 2.43518590E+00,  4.64640063E-03, -2.40011240E-06,
                       4.26408546E-10, -2.60655383E-14, -2.17971531E+04,
                      -1.03866667E+01])))

species(name='H2O*(13)',
        atoms='H:2 O:1 X:1',
        thermo=(NASA([100.00, 912.85],
                     [-1.34340087E+00,  3.66695475E-02, -7.99480478E-05,
                       7.74124900E-08, -2.68665206E-11, -3.23490305E+04,
                       1.10237649E+01]),
                NASA([912.85, 5000.00],
                     [ 1.12158774E+00,  8.16639512E-03, -4.02358184E-06,
                       7.20421135E-10, -4.51442539E-14, -3.20615229E+04,
                       3.39616437E+00])))

species(name='CO*(14)',
        atoms='C:1 O:1 X:1',
        thermo=(NASA([100.00, 891.31],
                     [-1.38220492E+00,  3.75313467E-02, -8.29789341E-05,
                       8.09745725E-08, -2.85491668E-11, -2.25369922E+04,
                       4.35470172E+00]),
                NASA([891.31, 5000.00],
                     [ 1.38106885E+00,  8.05690339E-03, -4.64291970E-06,
                       8.91129769E-10, -5.90013911E-14, -2.23513854E+04,
                      -4.85408694E+00])))

species(name='CO2*(15)',
        atoms='C:1 O:2 X:1',
        thermo=(NASA([100.00, 875.19],
                     [-1.46243156E+00,  3.78465830E-02, -7.61204294E-05,
                       7.18292826E-08, -2.50670873E-11, -5.24217585E+04,
                       1.20602695E+01]),
                NASA([875.19, 5000.00],
                     [ 2.04184068E+00,  9.07415296E-03, -4.94344454E-06,
                       9.56511589E-10, -6.46926856E-14, -5.25466016E+04,
                      -1.58759806E+00])))

species(name='HCO*(16)',
        atoms='C:1 H:1 O:1 X:1',
        thermo=(NASA([100.00, 873.21],
                     [-1.43681126E+00,  3.69245510E-02, -7.17912045E-05,
                       6.73543951E-08, -2.35183663E-11, -2.16948331E+04,
                       8.27567390E+00]),
                NASA([873.21, 5000.00],
                     [ 1.83283901E+00,  1.00778087E-02, -5.28529296E-06,
                       1.01351021E-09, -6.85176017E-14, -2.18133387E+04,
                      -4.46412817E+00])))

species(name='HCOO*(17)',
        atoms='C:1 H:1 O:2 X:1',
        thermo=(NASA([100.00, 830.08],
                     [-1.76229581E+00,  4.29177083E-02, -7.40771628E-05,
                       6.53473989E-08, -2.23043993E-11, -5.60364011E+04,
                       6.20758533E+00]),
                NASA([830.08, 5000.00],
                     [ 3.26722932E+00,  1.20317939E-02, -6.24856236E-06,
                       1.22138771E-09, -8.47330966E-14, -5.66422923E+04,
                      -1.57403769E+01])))

species(name='COOH*(18)',
        atoms='C:1 H:1 O:2 X:1',
        thermo=(NASA([100.00, 816.90],
                     [-1.63327134E+00,  3.87823757E-02, -6.41967316E-05,
                       5.36653308E-08, -1.74576035E-11, -5.15539618E+04,
                       1.19827893E+01]),
                NASA([816.90, 5000.00],
                     [ 3.90719645E+00,  8.95136640E-03, -4.45969455E-06,
                       8.65653214E-10, -6.00138114E-14, -5.23690154E+04,
                      -1.30744991E+01])))

species(name='HCOOH*(19)',
        atoms='C:1 H:2 O:2 X:1',
        thermo=(NASA([100.00, 855.72],
                     [-1.86631069E+00,  4.64162527E-02, -8.23153840E-05,
                       7.46389463E-08, -2.57971589E-11, -5.32767865E+04,
                       1.72793276E+01]),
                NASA([855.72, 5000.00],
                     [ 2.69760959E+00,  1.43101180E-02, -7.15295909E-06,
                       1.37053691E-09, -9.36325285E-14, -5.36634686E+04,
                      -1.72330127E+00])))

species(name='CH2O*(20)',
        atoms='C:1 H:2 O:1 X:1',
        thermo=(NASA([100.00, 879.32],
                     [-1.46695863E+00,  4.13870338E-02, -8.87611105E-05,
                       9.10103141E-08, -3.36603335E-11, -2.03002415E+04,
                       1.57177943E+01]),
                NASA([879.32, 5000.00],
                     [-8.92954341E-01,  1.66196974E-02, -8.71598970E-06,
                       1.66817352E-09, -1.12504529E-13, -1.95446241E+04,
                       1.78929783E+01])))

species(name='CH3O*(21)',
        atoms='C:1 H:3 O:1 X:1',
        thermo=(NASA([100.00, 857.66],
                     [-1.68422476E+00,  4.28023961E-02, -7.50784539E-05,
                       7.03683588E-08, -2.50920639E-11, -2.23137124E+04,
                       7.76424217E+00]),
                NASA([857.66, 5000.00],
                     [ 1.14794358E+00,  1.71344709E-02, -8.39641041E-06,
                       1.59808581E-09, -1.08976215E-13, -2.23412852E+04,
                      -2.79303859E+00])))

species(name='CH3O2*(22)',
        atoms='C:1 H:3 O:2 X:1',
        thermo=(NASA([100.00, 932.27],
                     [ 3.21914785E+00,  6.71740212E-03,  3.72265103E-05,
                      -5.73624614E-08,  2.36256858E-11, -4.74893805E+04,
                      -6.14513130E+00]),
                NASA([932.27, 5000.00],
                     [ 1.03102833E+01,  3.04288843E-03,  9.71225510E-08,
                      -3.19376882E-11, -2.13380472E-15, -4.99740322E+04,
                      -4.60931425E+01])))

species(name='CH3OH*(23)',
        atoms='C:1 H:4 O:1 X:1',
        thermo=(NASA([100.00, 850.39],
                     [-1.64012533E+00,  4.09979912E-02, -6.66179270E-05,
                       6.12131768E-08, -2.17743694E-11, -3.05087348E+04,
                       1.38246296E+01]),
                NASA([850.39, 5000.00],
                     [ 1.01842628E+00,  1.82965236E-02, -8.58970685E-06,
                       1.62229934E-09, -1.10731313E-13, -3.05922104E+04,
                       3.59723421E+00])))

species(name='CH3X(33)',
        atoms='C:1 H:3 X:1',
        thermo=(NASA([100.00, 848.30],
                     [-1.21090759E+00,  2.92391022E-02, -4.49012428E-05,
                       3.86011813E-08, -1.30362027E-11, -1.29918548E+02,
                       6.80940675E+00]),
                NASA([848.30, 5000.00],
                     [ 1.62291424E+00,  1.12987170E-02, -5.08316318E-06,
                       9.46832148E-10, -6.42884322E-14, -4.45985703E+02,
                      -5.42504109E+00])))

species(name='CH2X(35)',
        atoms='C:1 H:2 X:1',
        thermo=(NASA([100.00, 1199.83],
                     [-1.02006579E+00,  2.03778537E-02, -2.17291038E-05,
                       1.15868509E-08, -2.38469875E-12,  1.16284700E+04,
                       2.99160402E+00]),
                NASA([1199.83, 5000.00],
                     [ 3.89285578E+00,  3.99892111E-03, -1.25227841E-06,
                       2.09081117E-10, -1.39642283E-14,  1.04495508E+04,
                      -2.16053760E+01])))

species(name='CH3OX(49)',
        atoms='C:1 H:3 O:1 X:1',
        thermo=(NASA([100.00, 813.97],
                     [-1.68230823E+00,  3.97247724E-02, -5.96100761E-05,
                       4.86910587E-08, -1.58043919E-11, -2.91607671E+04,
                       8.26683425E+00]),
                NASA([813.97, 5000.00],
                     [ 3.25577001E+00,  1.30435207E-02, -5.99161151E-06,
                       1.13139021E-09, -7.77154712E-14, -2.98846672E+04,
                      -1.40487704E+01])))

species(name='SX(59)',
        atoms='C:2 H:3 O:2 X:1',
        thermo=(NASA([100.00, 1039.03],
                     [ 2.71977627E+00,  2.09411859E-02,  6.19343184E-06,
                      -2.18935119E-08,  9.16869944E-12, -4.68973746E+04,
                      -7.23233213E+00]),
                NASA([1039.03, 5000.00],
                     [ 9.24579995E+00,  1.24763030E-02, -5.63574884E-06,
                       1.12728839E-09, -8.31652751E-14, -4.91527325E+04,
                      -4.32936760E+01])))

species(name='SX(62)',
        atoms='C:2 H:4 O:2 X:1',
        thermo=(NASA([100.00, 820.10],
                     [-2.35599614E+00,  5.79273763E-02, -9.10543042E-05,
                       8.22065126E-08, -2.93596913E-11, -5.61090294E+04,
                       1.65729134E+01]),
                NASA([820.10, 5000.00],
                     [ 2.03716908E+00,  2.57554466E-02, -1.25582804E-05,
                       2.42102078E-09, -1.67869643E-13, -5.64682790E+04,
                      -1.54739206E+00])))

species(name='SX(76)',
        atoms='C:2 H:5 O:2 X:1',
        thermo=(NASA([100.00, 636.54],
                     [-2.43859120E+00,  5.89616660E-02, -7.18893728E-05,
                       4.85262592E-08, -1.21493484E-11, -4.96820654E+04,
                       1.17378578E+01]),
                NASA([636.54, 5000.00],
                     [ 3.52002505E+00,  2.77918518E-02, -1.32227853E-05,
                       2.56778976E-09, -1.80932319E-13, -5.05677483E+04,
                      -1.53158669E+01])))

species(name='CH4O2X(82)',
        atoms='C:1 H:4 O:2 X:1',
        thermo=(NASA([100.00, 961.78],
                     [ 2.51547753E+00,  2.72656757E-02, -1.57726046E-05,
                      -3.63315892E-09,  4.55721959E-12, -4.95909859E+04,
                       6.65625867E+00]),
                NASA([961.78, 5000.00],
                     [ 1.07628667E+01,  5.61558492E-03, -1.73662467E-06,
                       3.13455362E-10, -2.34462643E-14, -5.17625174E+04,
                      -3.58529654E+01])))

species(name='C2H3OX(97)',
        atoms='C:2 H:3 O:1 X:1',
        thermo=(NASA([100.00, 795.05],
                     [-1.77481253E+00,  4.25202439E-02, -6.31736464E-05,
                       5.36568448E-08, -1.83586104E-11, -2.97019428E+04,
                       1.31125699E+01]),
                NASA([795.05, 5000.00],
                     [ 2.52722036E+00,  1.71158589E-02, -8.14937508E-06,
                       1.56889741E-09, -1.09168890E-13, -3.02671644E+04,
                      -5.90817489E+00])))

species(name='SX(100)',
        atoms='C:2 H:3 O:2 X:1',
        thermo=(NASA([100.00, 947.39],
                     [ 2.59772545E+00,  1.62201622E-02,  3.59953750E-05,
                      -6.61842952E-08,  2.83136166E-11, -4.75173053E+04,
                      -4.10971096E+00]),
                NASA([947.39, 5000.00],
                     [ 1.47988839E+01,  1.66451603E-03,  5.23682084E-07,
                      -4.50176561E-11, -5.69410105E-15, -5.14877815E+04,
                      -7.10675154E+01])))

species(name='SX(102)',
        atoms='C:2 H:3 O:2 X:1',
        thermo=(NASA([100.00, 954.05],
                     [ 3.08951769E+00,  1.06684310E-02,  3.09815915E-05,
                      -4.88665030E-08,  1.96747383E-11, -4.97649278E+04,
                      -4.73088105E+00]),
                NASA([954.05, 5000.00],
                     [ 9.21890292E+00,  8.51394960E-03, -2.64747551E-06,
                       4.98606218E-10, -3.88044934E-14, -5.20059817E+04,
                      -3.96288399E+01])))

species(name='SX(105)',
        atoms='C:2 H:4 O:1 X:1',
        thermo=(NASA([100.00, 831.49],
                     [-1.98731053E+00,  4.92555294E-02, -7.83013980E-05,
                       7.15153731E-08, -2.56322990E-11, -2.96428700E+04,
                       1.49831932E+01]),
                NASA([831.49, 5000.00],
                     [ 1.38277068E+00,  2.24430694E-02, -1.08094081E-05,
                       2.07019853E-09, -1.42824240E-13, -2.98368695E+04,
                       1.54989883E+00])))

species(name='SX(110)',
        atoms='C:2 H:4 O:2 X:1',
        thermo=(NASA([100.00, 1098.76],
                     [ 2.87745151E+00,  1.96116999E-02,  4.68177938E-06,
                      -1.54710602E-08,  5.92272395E-12, -5.49099632E+04,
                       8.53288045E+00]),
                NASA([1098.76, 5000.00],
                     [ 6.84059569E+00,  1.67777137E-02, -7.27676428E-06,
                       1.38791950E-09, -9.81923411E-14, -5.64807118E+04,
                      -1.41449354E+01])))

species(name='SX(111)',
        atoms='C:2 H:5 O:2 X:1',
        thermo=(NASA([100.00, 2239.02],
                     [ 2.64292245E+00,  2.85176491E-02, -1.56626501E-05,
                       3.97863410E-09, -3.98787708E-13, -5.33936234E+04,
                      -5.22549348E-01]),
                NASA([2239.02, 5000.00],
                     [ 1.11462103E+01,  1.33262548E-02, -5.48518421E-06,
                       9.48239657E-10, -6.04192052E-14, -5.72013531E+04,
                      -4.83998025E+01])))

species(name='SX(112)',
        atoms='C:2 H:5 O:1 X:1',
        thermo=(NASA([100.00, 1002.48],
                     [-1.65510900E+00,  3.92641649E-02, -3.49543838E-05,
                       1.83231224E-08, -4.20866920E-12, -2.83536650E+04,
                       1.25354437E+01]),
                NASA([1002.48, 5000.00],
                     [ 2.45084134E+00,  2.28809161E-02, -1.04401894E-05,
                       2.02067872E-09, -1.43121540E-13, -2.91768877E+04,
                      -7.28354392E+00])))

species(name='SX(115)',
        atoms='C:2 H:5 O:2 X:1',
        thermo=(NASA([100.00, 1013.52],
                     [ 1.88054216E+00,  4.63441183E-02, -5.23519514E-05,
                       3.15694155E-08, -7.59607198E-12, -5.00923095E+04,
                      -5.70695940E+00]),
                NASA([1013.52, 5000.00],
                     [ 9.81916426E+00,  1.50125350E-02, -5.98048576E-06,
                       1.06682075E-09, -7.19814026E-14, -5.17014646E+04,
                      -4.41126587E+01])))

species(name='SX(121)',
        atoms='C:2 H:6 O:1 X:1',
        thermo=(NASA([100.00, 792.26],
                     [-2.21828554E+00,  5.31496399E-02, -7.18804140E-05,
                       6.07177961E-08, -2.12062174E-11, -3.22321674E+04,
                       1.74993359E+01]),
                NASA([792.26, 5000.00],
                     [ 1.92704743E+00,  2.69890490E-02, -1.24452901E-05,
                       2.36997075E-09, -1.64344866E-13, -3.27248220E+04,
                      -4.98031284E-01])))

species(name='SX(131)',
        atoms='C:2 H:2 O:1 X:1',
        thermo=(NASA([100.00, 849.46],
                     [-1.86111620E+00,  4.48478044E-02, -7.47872784E-05,
                       6.42457932E-08, -2.13279425E-11, -2.26207756E+04,
                       1.27949233E+01]),
                NASA([849.46, 5000.00],
                     [ 3.63374096E+00,  1.24158262E-02, -5.93871429E-06,
                       1.12498503E-09, -7.66586424E-14, -2.33177244E+04,
                      -1.14255196E+01])))

species(name='C2HOX(141)',
        atoms='C:2 H:1 O:1 X:1',
        thermo=(NASA([100.00, 913.55],
                     [-1.67151604E+00,  3.83698578E-02, -5.34684221E-05,
                       3.69257421E-08, -9.94905816E-12, -2.09648819E+04,
                       5.33690225E+00]),
                NASA([913.55, 5000.00],
                     [ 5.21877929E+00,  8.19936085E-03, -3.92815333E-06,
                       7.72126698E-10, -5.49563196E-14, -2.22237586E+04,
                      -2.72815197E+01])))

species(name='SX(143)',
        atoms='C:2 H:3 O:1 X:1',
        thermo=(NASA([100.00, 938.94],
                     [ 3.34409338E+00,  5.33784156E-03,  3.65524277E-05,
                      -5.29034129E-08,  2.11177698E-11, -2.48312297E+04,
                      -7.76874137E+00]),
                NASA([938.94, 5000.00],
                     [ 8.64748232E+00,  5.88983213E-03, -1.30491300E-06,