units(length='cm', time='s', quantity='mol', act_energy='kcal/mol')

ideal_gas(name='gas',
          elements="H D T C Ci O Oi N Ne Ar He Si S F Cl Br I X",
          species="""N2          Ne          H2(2)       CO(3)
                     CO2(4)      H2O(5)      CH2O(6)     HCOOH(7)
                     CH3OH(8)    HCOOCH3(9)  CH4(32)     CC(134)""",
          reactions='gas-*',
          transport='Mix',
          initial_state=state(temperature=300.0, pressure=OneAtm))

ideal_interface(name='surface1',
                elements="H D T C Ci O Oi N Ne Ar He Si S F Cl Br I X",
                species="""X(1)        H*(10)      O*(11)      OH*(12)
                          H2O*(13)    CO*(14)     CO2*(15)    HCO*(16)
                          HCOO*(17)   COOH*(18)   HCOOH*(19)  CH2O*(20)
                          CH3O*(21)   CH3O2*(22)  CH3OH*(23)  CH3X(33)
                          CH3OX(49)   SX(62)      C2H6X(131)  C2H5X(136)""",
                site_density=2.943e-09,
                phases="gas",
          reactions='surface1-*',
                initial_state=state(temperature=300.0, pressure=OneAtm))

#-------------------------------------------------------------------------------
# Element data
#-------------------------------------------------------------------------------

element(symbol='Ci', atomic_mass=13.003)
element(symbol='D', atomic_mass=2.014)
element(symbol='Oi', atomic_mass=17.999)
element(symbol='T', atomic_mass=3.016)
element(symbol='X', atomic_mass=195.083)
#-------------------------------------------------------------------------------
# Species data
#-------------------------------------------------------------------------------

species(name='N2',
        atoms='N:2',
        thermo=(NASA([200.00, 1000.00],
                     [ 3.53101000E+00, -1.23661000E-04, -5.02999000E-07,
                       2.43531000E-09, -1.40881000E-12, -1.04698000E+03,
                       2.96747000E+00]),
                NASA([1000.00, 6000.00],
                     [ 2.95258000E+00,  1.39690000E-03, -4.92632000E-07,
                       7.86010000E-11, -4.60755000E-15, -9.23949000E+02,
                       5.87189000E+00])),
        transport=gas_transport(geom='linear',
                                diam=3.621,
                                well_depth=97.53,
                                polar=1.76,
                                rot_relax=4.0))

species(name='Ne',
        atoms='Ne:1',
        thermo=(NASA([200.00, 1000.00],
                     [ 2.50000000E+00,  0.00000000E+00,  0.00000000E+00,
                       0.00000000E+00,  0.00000000E+00, -7.45375000E+02,
                       3.35532000E+00]),
                NASA([1000.00, 6000.00],
                     [ 2.50000000E+00,  0.00000000E+00,  0.00000000E+00,
                       0.00000000E+00,  0.00000000E+00, -7.45375000E+02,
                       3.35532000E+00])),
        transport=gas_transport(geom='atom',
                                diam=3.758,
                                well_depth=148.6))

species(name='H2(2)',
        atoms='H:2',
        thermo=(NASA([100.00, 1959.07],
                     [ 3.43536405E+00,  2.12710954E-04, -2.78626405E-07,
                       3.40268235E-10, -7.76034644E-14, -1.03135984E+03,
                      -3.90841705E+00]),
                NASA([1959.07, 5000.00],
                     [ 2.78817306E+00,  5.87631545E-04,  1.59014816E-07,
                      -5.52747855E-11,  4.34317420E-15, -5.96148537E+02,
                       1.12689783E-01])),
        transport=gas_transport(geom='linear',
                                diam=2.92,
                                well_depth=38.0,
                                polar=0.79,
                                rot_relax=280.0))

species(name='CO(3)',
        atoms='C:1 O:1',
        thermo=(NASA([100.00, 1571.64],
                     [ 3.56837976E+00, -8.52123452E-04,  2.48917230E-06,
                      -1.56330523E-09,  3.13593773E-13, -1.42842549E+04,
                       3.57912263E+00]),
                NASA([1571.64, 5000.00],
                     [ 2.91307187E+00,  1.64657103E-03, -6.88611376E-07,
                       1.21036622E-10, -7.84012380E-15, -1.41808873E+04,
                       6.71042732E+00])),
        transport=gas_transport(geom='linear',
                                diam=3.65,
                                well_depth=98.1,
                                polar=1.95,
                                rot_relax=1.8))

species(name='CO2(4)',
        atoms='C:1 O:2',
        thermo=(NASA([100.00, 978.22],
                     [ 3.28084117E+00,  2.50189715E-03,  8.08177460E-06,
                      -1.20508412E-08,  4.66534141E-12, -4.84008302E+04,
                       6.00082639E+00]),
                NASA([978.22, 5000.00],
                     [ 4.67428675E+00,  2.60960725E-03, -9.85670715E-07,
                       1.95709322E-10, -1.49832475E-14, -4.89512221E+04,
                      -2.11084487E+00])),
        transport=gas_transport(geom='linear',
                                diam=3.763,
                                well_depth=244.001,
                                polar=2.65,
                                rot_relax=2.1))

species(name='H2O(5)',
        atoms='H:2 O:1',
        thermo=(NASA([100.00, 1130.23],
                     [ 4.05763525E+00, -7.87929311E-04,  2.90875350E-06,
                      -1.47516305E-09,  2.12833045E-13, -3.02815866E+04,
                      -3.11361962E-01]),
                NASA([1130.23, 5000.00],
                     [ 2.84325449E+00,  2.75107891E-03, -7.81027841E-07,
                       1.07242800E-10, -5.79385414E-15, -2.99586146E+04,
                       5.91039696E+00])),
        transport=gas_transport(geom='nonlinear',
                                diam=2.605,
                                well_depth=572.402,
                                dipole=1.844,
                                rot_relax=4.0))

species(name='CH2O(6)',
        atoms='C:1 H:2 O:1',
        thermo=(NASA([100.00, 1070.44],
                     [ 4.12927639E+00, -4.08399426E-03,  2.03228699E-05,
                      -1.83523445E-08,  5.37972286E-12, -1.44294639E+04,
                       3.22419050E+00]),
                NASA([1070.44, 5000.00],
                     [ 2.21173333E+00,  7.94264203E-03, -3.34192218E-06,
                       6.28469457E-10, -4.40429851E-14, -1.42974495E+04,
                       1.13048480E+01])),
        transport=gas_transport(geom='nonlinear',
                                diam=3.59,
                                well_depth=498.002,
                                rot_relax=2.0))

species(name='HCOOH(7)',
        atoms='C:1 H:2 O:2',
        thermo=(NASA([100.00, 993.73],
                     [ 3.76240461E+00, -9.43842929E-04,  3.38778215E-05,
                      -4.04982854E-08,  1.43986289E-11, -4.68212101E+04,
                       7.63276454E+00]),
                NASA([993.73, 5000.00],
                     [ 5.64500539E+00,  7.55181569E-03, -3.20851119E-06,
                       6.58918277E-10, -5.05054580E-14, -4.79890034E+04,
                      -5.43105750E+00])),
        transport=gas_transport(geom='nonlinear',
                                diam=3.626,
                                well_depth=481.8,
                                dipole=1.7,
                                rot_relax=1.0))

species(name='CH3OH(8)',
        atoms='C:1 H:4 O:1',
        thermo=(NASA([100.00, 1035.75],
                     [ 3.84006534E+00,  1.38238232E-03,  1.91668497E-05,
                      -2.01570326E-08,  6.39109198E-12, -2.56083088E+04,
                       5.90976989E+00]),
                NASA([1035.75, 5000.00],
                     [ 2.79182778E+00,  1.15828107E-02, -4.51553381E-06,
                       8.21210111E-10, -5.67066057E-14, -2.57211609E+04,
                       9.41070164E+00])),
        transport=gas_transport(geom='nonlinear',
                                diam=3.626,
                                well_depth=481.802,
                                rot_relax=1.0))

species(name='HCOOCH3(9)',
        atoms='C:2 H:4 O:2',
        thermo=(NASA([100.00, 1141.78],
                     [ 3.28122732E+00,  1.13181174E-02,  1.84475690E-05,
                      -2.41942952E-08,  7.75127773E-12, -4.46725563E+04,
                       1.20363923E+01]),
                NASA([1141.78, 5000.00],
                     [ 4.90992838E+00,  1.87529123E-02, -8.58325276E-06,
                       1.66846567E-09, -1.18611452E-13, -4.59010212E+04,
                       2.11989513E-01])),
        transport=gas_transport(geom='nonlinear',
                                diam=5.234,
                                well_depth=377.356))

species(name='CH4(32)',
        atoms='C:1 H:4',
        thermo=(NASA([100.00, 1084.13],
                     [ 4.20541221E+00, -5.35553877E-03,  2.51122092E-05,
                      -2.13761398E-08,  5.97518145E-12, -1.01619432E+04,
                      -9.21268377E-01]),
                NASA([1084.13, 5000.00],
                     [ 9.08283160E-01,  1.14540571E-02, -4.57172207E-06,
                       8.29187907E-10, -5.66311813E-14, -9.71998208E+03,
                       1.39929956E+01])),
        transport=gas_transport(geom='nonlinear',
                                diam=3.746,
                                well_depth=141.4,
                                polar=2.6,
                                rot_relax=13.0))

species(name='CC(134)',
        atoms='C:2 H:6',
        thermo=(NASA([100.00, 1012.42],
                     [ 3.72239297E+00,  1.65083768E-03,  3.44175556E-05,
                      -3.76858263E-08,  1.24450672E-11, -1.15575901E+04,
                       4.68247977E+00]),
                NASA([1012.42, 5000.00],
                     [ 2.82848231E+00,  1.73040573E-02, -6.73334270E-06,
                       1.23742030E-09, -8.65676460E-14, -1.19978079E+04,
                       5.93811856E+00])),
        transport=gas_transport(geom='nonlinear',
                                diam=4.302,
                                well_depth=252.301,
                                rot_relax=1.5))

species(name='X(1)',
        atoms='X:1',
        thermo=(NASA([100.00, 1554.82],
                     [ 7.10117715E-03, -4.25598384E-05,  8.98477066E-08,
                      -7.80141360E-11,  2.32449881E-14, -8.76090874E-01,
                      -3.11203064E-02]),
                NASA([1554.82, 5000.00],
                     [ 1.60306443E-01, -2.52244785E-04,  1.14186028E-07,
                      -1.21481826E-11,  3.85868180E-16, -7.08135149E+01,
                      -9.09565610E-01])))

species(name='H*(10)',
        atoms='H:1 X:1',
        thermo=(NASA([100.00, 952.91],
                     [-3.80966063E-01,  5.47229457E-03,  2.60910036E-06,
                      -9.64958252E-09,  4.63945090E-12, -1.40557038E+03,
                       1.01725767E+00]),
                NASA([952.91, 5000.00],
                     [ 2.80339860E+00, -5.41050545E-04,  4.99510034E-07,
                      -7.54968543E-11,  3.06776450E-15, -2.34632067E+03,
                      -1.59436902E+01])))

species(name='O*(11)',
        atoms='O:1 X:1',
        thermo=(NASA([100.00, 888.25],
                     [-7.59017636E-01,  1.89869077E-02, -3.82475968E-05,
                       3.43561585E-08, -1.13975882E-11, -2.18356102E+04,
                       1.76019009E+00]),
                NASA([888.25, 5000.00],
                     [ 1.89894768E+00,  2.03293393E-03, -1.19975369E-06,
                       2.32677753E-10, -1.53505836E-14, -2.21111610E+04,
                      -9.64110497E+00])))

species(name='OH*(12)',
        atoms='H:1 O:1 X:1',
        thermo=(NASA([100.00, 914.57],
                     [-1.29515836E+00,  3.36478908E-02, -7.07727875E-05,
                       6.54329182E-08, -2.19416678E-11, -2.16453909E+04,
                       4.37632418E+00]),
                NASA([914.57, 5000.00],
                     [ 2.43521813E+00,  4.64634420E-03, -2.40007917E-06,
                       4.26400576E-10, -2.60648697E-14, -2.17971661E+04,
                      -1.03868471E+01])))

species(name='H2O*(13)',
        atoms='H:2 O:1 X:1',
        thermo=(NASA([100.00, 912.84],
                     [-1.34343269E+00,  3.66699454E-02, -7.99495483E-05,
                       7.74145984E-08, -2.68674957E-11, -3.23490291E+04,
                       1.10238776E+01]),
                NASA([912.84, 5000.00],
                     [ 1.12167713E+00,  8.16623847E-03, -4.02348955E-06,
                       7.20398993E-10, -4.51423960E-14, -3.20615590E+04,
                       3.39566400E+00])))

species(name='CO*(14)',
        atoms='C:1 O:1 X:1',
        thermo=(NASA([100.00, 891.33],
                     [-1.38215864E+00,  3.75307614E-02, -8.29766920E-05,
                       8.09713637E-08, -2.85476529E-11, -2.25369942E+04,
                       4.35453826E+00]),
                NASA([891.33, 5000.00],
                     [ 1.38095096E+00,  8.05711171E-03, -4.64304315E-06,
                       8.91159509E-10, -5.90038943E-14, -2.23513383E+04,
                      -4.85342807E+00])))

species(name='CO2*(15)',
        atoms='C:1 O:2 X:1',
        thermo=(NASA([100.00, 875.18],
                     [-1.46243760E+00,  3.78466601E-02, -7.61207282E-05,
                       7.18297163E-08, -2.50672950E-11, -5.24217583E+04,
                       1.20602908E+01]),
                NASA([875.18, 5000.00],
                     [ 2.04185496E+00,  9.07412755E-03, -4.94342942E-06,
                       9.56507935E-10, -6.46923773E-14, -5.25466073E+04,
                      -1.58767780E+00])))

species(name='HCO*(16)',
        atoms='C:1 H:1 O:1 X:1',
        thermo=(NASA([100.00, 873.23],
                     [-1.43677340E+00,  3.69240673E-02, -7.17893267E-05,
                       6.73516651E-08, -2.35170561E-11, -2.16948347E+04,
                       8.27554043E+00]),
                NASA([873.23, 5000.00],
                     [ 1.83275028E+00,  1.00779666E-02, -5.28538698E-06,
                       1.01353294E-09, -6.85195200E-14, -2.18133036E+04,
                      -4.46363301E+00])))

species(name='HCOO*(17)',
        atoms='C:1 H:1 O:2 X:1',
        thermo=(NASA([100.00, 830.10],
                     [-1.76226951E+00,  4.29173641E-02, -7.40757813E-05,
                       6.53453111E-08, -2.23033541E-11, -5.60364022E+04,
                       6.20749310E+00]),
                NASA([830.10, 5000.00],
                     [ 3.26717917E+00,  1.20318847E-02, -6.24861708E-06,
                       1.22140105E-09, -8.47342297E-14, -5.66422730E+04,
                      -1.57400979E+01])))

species(name='COOH*(18)',
        atoms='C:1 H:1 O:2 X:1',
        thermo=(NASA([100.00, 816.89],
                     [-1.63327519E+00,  3.87824265E-02, -6.41969378E-05,
                       5.36656462E-08, -1.74577636E-11, -5.15539616E+04,
                       1.19828028E+01]),
                NASA([816.89, 5000.00],
                     [ 3.90720334E+00,  8.95135385E-03, -4.45968696E-06,
                       8.65651359E-10, -6.00136536E-14, -5.23690180E+04,
                      -1.30745374E+01])))

species(name='HCOOH*(19)',
        atoms='C:1 H:2 O:2 X:1',
        thermo=(NASA([100.00, 855.73],
                     [-1.86628512E+00,  4.64159229E-02, -8.23140862E-05,
                       7.46370302E-08, -2.57962236E-11, -5.32767876E+04,
                       1.72792376E+01]),
                NASA([855.73, 5000.00],
                     [ 2.69755441E+00,  1.43102169E-02, -7.15301826E-06,
                       1.37055126E-09, -9.36337429E-14, -5.36634470E+04,
                      -1.72299373E+00])))

species(name='CH2O*(20)',
        atoms='C:1 H:2 O:1 X:1',
        thermo=(NASA([100.00, 879.32],
                     [-1.46698135E+00,  4.13873230E-02, -8.87622285E-05,
                       9.10119307E-08, -3.36611049E-11, -2.03002406E+04,
                       1.57178744E+01]),
                NASA([879.32, 5000.00],
                     [-8.92899577E-01,  1.66196002E-02, -8.71593190E-06,
                       1.66815956E-09, -1.12503352E-13, -1.95446458E+04,
                       1.78926725E+01])))

species(name='CH3O*(21)',
        atoms='C:1 H:3 O:1 X:1',
        thermo=(NASA([100.00, 857.66],
                     [-1.68422382E+00,  4.28023839E-02, -7.50784061E-05,
                       7.03682882E-08, -2.50920295E-11, -2.23137124E+04,
                       7.76423884E+00]),
                NASA([857.66, 5000.00],
                     [ 1.14794153E+00,  1.71344746E-02, -8.39641261E-06,
                       1.59808634E-09, -1.08976260E-13, -2.23412844E+04,
                      -2.79302712E+00])))

species(name='CH3O2*(22)',
        atoms='C:1 H:3 O:2 X:1',
        thermo=(NASA([100.00, 932.26],
                     [ 3.21916257E+00,  6.71721986E-03,  3.72271881E-05,
                      -5.73633986E-08,  2.36261117E-11, -4.74893811E+04,
                      -6.14518354E+00]),
                NASA([932.26, 5000.00],
                     [ 1.03102382E+01,  3.04296689E-03,  9.70765706E-08,
                      -3.19266985E-11, -2.13472427E-15, -4.99740138E+04,
                      -4.60928897E+01])))

species(name='CH3OH*(23)',
        atoms='C:1 H:4 O:1 X:1',
        thermo=(NASA([100.00, 850.41],
                     [-1.64008367E+00,  4.09974522E-02, -6.66157976E-05,
                       6.12100178E-08, -2.17728194E-11, -3.05087366E+04,
                       1.38244831E+01]),
                NASA([850.41, 5000.00],
                     [ 1.01833863E+00,  1.82966810E-02, -8.58980118E-06,
                       1.62232225E-09, -1.10733252E-13, -3.05921761E+04,
                       3.59772254E+00])))

species(name='CH3X(33)',
        atoms='C:1 H:3 X:1',
        thermo=(NASA([100.00, 848.29],
                     [-1.21091198E+00,  2.92391592E-02, -4.49014681E-05,
                       3.86015162E-08, -1.30363673E-11, -1.29918362E+02,
                       6.80942220E+00]),
                NASA([848.29, 5000.00],
                     [ 1.62292340E+00,  1.12987005E-02, -5.08315331E-06,
                       9.46829750E-10, -6.42882292E-14, -4.45989277E+02,
                      -5.42509209E+00])))

species(name='CH3OX(49)',
        atoms='C:1 H:3 O:1 X:1',
        thermo=(NASA([100.00, 813.99],
                     [-1.68229859E+00,  3.97246450E-02, -5.96095580E-05,
                       4.86902639E-08, -1.58039875E-11, -2.91607675E+04,
                       8.26680049E+00]),
                NASA([813.99, 5000.00],
                     [ 3.25575302E+00,  1.30435517E-02, -5.99163026E-06,
                       1.13139480E-09, -7.77158616E-14, -2.98846607E+04,
                      -1.40486760E+01])))

species(name='SX(62)',
        atoms='C:2 H:4 O:2 X:1',
        thermo=(NASA([100.00, 820.14],
                     [-2.35589374E+00,  5.79260282E-02, -9.10488504E-05,
                       8.21981940E-08, -2.93554845E-11, -5.61090337E+04,
                       1.65725547E+01]),
                NASA([820.14, 5000.00],
                     [ 2.03698311E+00,  2.57557846E-02, -1.25584847E-05,
                       2.42107070E-09, -1.67873888E-13, -5.64682075E+04,
                      -1.54635847E+00])))

species(name='C2H6X(131)',
        atoms='C:2 H:6 X:1',
        thermo=(NASA([100.00, 826.24],
                     [-1.73427106E+00,  4.32690591E-02, -6.15063171E-05,
                       5.72998216E-08, -2.14165113E-11, -1.40653293E+04,
                       1.90798114E+01]),
                NASA([826.24, 5000.00],
                     [-4.51989795E-01,  2.66242884E-02, -1.23405442E-05,
                       2.34091684E-09, -1.61301634E-13, -1.39209741E+04,
                       1.52941501E+01])))

species(name='C2H5X(136)',
        atoms='C:2 H:5 X:1',
        thermo=(NASA([100.00, 803.89],
                     [-1.64624251E+00,  3.89625153E-02, -4.31124447E-05,
                       2.97071407E-08, -8.80199673E-12, -4.11359418E+03,
                       9.27319404E+00]),
                NASA([803.89, 5000.00],
                     [ 1.97599919E+00,  2.09382399E-02, -9.47914535E-06,
                       1.81392334E-09, -1.27205813E-13, -4.69594813E+03,
                      -7.41117691E+00])))

#-------------------------------------------------------------------------------
# Reaction data
#-------------------------------------------------------------------------------
#  Reaction index: Chemkin #1; RMG #49
#  Template reaction: 1,2_Insertion_CO
#  Flux pairs: CO(3), CH2O(6); H2(2), CH2O(6);
#  Matched reaction 2 H2 + CO <=> CH2O in 1,2_Insertion_CO/training
#  This reaction matched rate rule [CO;H2]
#  family: 1,2_Insertion_CO

# Reaction 1
reaction('H2(2) + CO(3) <=> CH2O(6)', [2.890000e+09, 1.16, 82.1],
         id='gas-1')
#  Reaction index: Chemkin #2; RMG #51
#  Template reaction: 1,2_Insertion_CO
#  Flux pairs: CO(3), HCOOH(7); H2O(5), HCOOH(7);
#  Estimated using an average for rate rule [CO;RO_H]
#  Euclidian distance = 0
#  Multiplied by reaction path degeneracy 2.0
#  family: 1,2_Insertion_CO

# Reaction 2
reaction('H2O(5) + CO(3) <=> HCOOH(7)', [2.540000e-01, 3.7, 53.36],
         id='gas-2')
#  Reaction index: Chemkin #3; RMG #52
#  Template reaction: 1,3_Insertion_CO2
#  Flux pairs: CO2(4), HCOOH(7); H2(2), HCOOH(7);
#  Matched reaction 0 H2 + CO2 <=> CH2O2 in 1,3_Insertion_CO2/training
#  This reaction matched rate rule [Root_N-5CbCdCsHN->Cs_4CbCdCsHN->H_N-5CbCdHN->Cd]
#  family: 1,3_Insertion_CO2

# Reaction 3
reaction('H2(2) + CO2(4) <=> HCOOH(7)', [1.510000e+09, 1.23, 73.9],
         id='gas-3')
#  Reaction index: Chemkin #4; RMG #61
#  Template reaction: 1,2_Insertion_CO
#  Flux pairs: CO(3), HCOOCH3(9); CH3OH(8), HCOOCH3(9);
#  Matched reaction 7 CH4O + CO <=> C2H4O2 in 1,2_Insertion_CO/training
#  This reaction matched rate rule [CO;CsO_H]
#  family: 1,2_Insertion_CO

# Reaction 4
reaction('CO(3) + CH3OH(8) <=> HCOOCH3(9)', [1.270000e-01, 3.7, 53.36],
         id='gas-4')
#  Reaction index: Chemkin #5; RMG #63
#  Template reaction: 1,3_Insertion_CO2
#  Flux pairs: CO2(4), HCOOCH3(9); CH4(32), HCOOCH3(9);
#  Estimated from node Root_5CbCdCsHN->Cs_N-4CbCdCsHN->Cs
#  Multiplied by reaction path degeneracy 8.0

# Reaction 5
reaction('CO2(4) + CH4(32) <=> HCOOCH3(9)', [3.192624e-01, 3.391, 85.307],
         id='gas-5')
#  Reaction index: Chemkin #1; RMG #31
#  Library reaction: Surface/CPOX_Pt/Deutschmann2006_adjusted
#  Flux pairs: H2(2), H*(10); X(1), H*(10); X(1), H*(10);

# surface1 Reaction 1
surface_reaction('X(1) + X(1) + H2(2) <=> H*(10) + H*(10)', stick(4.600000e-02, 0.0, 0.0),
                 id='surface1-1')
#  Reaction index: Chemkin #2; RMG #44
#  Library reaction: Surface/CPOX_Pt/Deutschmann2006_adjusted
#  Flux pairs: OH*(12), O*(11); X(1), H*(10);

# surface1 Reaction 2
surface_reaction('X(1) + OH*(12) <=> O*(11) + H*(10)', [7.390000e+19, 0.0, 18.475],
                 id='surface1-2')
#  Reaction index: Chemkin #3; RMG #34
#  Library reaction: Surface/CPOX_Pt/Deutschmann2006_adjusted
#  Flux pairs: X(1), H2O*(13); H2O(5), H2O*(13);

# surface1 Reaction 3
surface_reaction('X(1) + H2O(5) <=> H2O*(13)', stick(7.500000e-01, 0.0, 0.0),
                 id='surface1-3')
#  Reaction index: Chemkin #4; RMG #45
#  Library reaction: Surface/CPOX_Pt/Deutschmann2006_adjusted
#  Flux pairs: H2O*(13), OH*(12); X(1), H*(10);

# surface1 Reaction 4
surface_reaction('X(1) + H2O*(13) <=> H*(10) + OH*(12)', [1.150000e+19, 0.0, 24.235],
                 id='surface1-4')
#  Reaction index: Chemkin #5; RMG #46
#  Library reaction: Surface/CPOX_Pt/Deutschmann2006_adjusted
#  Flux pairs: H2O*(13), OH*(12); O*(11), OH*(12);

# surface1 Reaction 5
surface_reaction('O*(11) + H2O*(13) <=> OH*(12) + OH*(12)', [1.000000e+20, 0.0, 21.63],
                 id='surface1-5')
#  Reaction index: Chemkin #6; RMG #37
#  Library reaction: Surface/CPOX_Pt/Deutschmann2006_adjusted
#  Flux pairs: CO*(14), X(1); CO*(14), CO(3);

# surface1 Reaction 6
surface_reaction('CO*(14) <=> X(1) + CO(3)', [1.000000e+11, 0.0, 40.511],
                 id='surface1-6')
#  Reaction index: Chemkin #7; RMG #35
#  Library reaction: Surface/CPOX_Pt/Deutschmann2006_adjusted
#  Flux pairs: X(1), CO2*(15); CO2(4), CO2*(15);

# surface1 Reaction 7
surface_reaction('X(1) + CO2(4) <=> CO2*(15)', stick(5.000000e-03, 0.0, 0.0),
                 id='surface1-7')
#  Reaction index: Chemkin #8; RMG #39
#  Library reaction: Surface/CPOX_Pt/Deutschmann2006_adjusted
#  Flux pairs: CO*(14), CO2*(15); O*(11), X(1);

# surface1 Reaction 8
surface_reaction('O*(11) + CO*(14) <=> X(1) + CO2*(15)', [3.700000e+21, 0.0, 28.107],
                 id='surface1-8')
#  Reaction index: Chemkin #9; RMG #40
#  Library reaction: Surface/CPOX_Pt/Deutschmann2006_adjusted
#  Flux pairs: CO*(14), CO2*(15); OH*(12), H*(10);

# surface1 Reaction 9
surface_reaction('OH*(12) + CO*(14) <=> H*(10) + CO2*(15)', [1.000000e+19, 0.0, 9.25],
                 id='surface1-9')
#  Reaction index: Chemkin #10; RMG #74
#  Template reaction: Surface_EleyRideal_Addition_Multiple_Bond
#  Flux pairs: H*(10), HCOO*(17); CO2(4), HCOO*(17);
#  Estimated using template [Adsorbate1;R=R] for rate rule [*H;R=R]
#  Euclidian distance = 1.0
#  Multiplied by reaction path degeneracy 2.0
#  family: Surface_EleyRideal_Addition_Multiple_Bond

# surface1 Reaction 10
surface_reaction('H*(10) + CO2(4) <=> HCOO*(17)', stick(1.000000e-01, 0.0, 17.462),
                 id='surface1-10')
#  Reaction index: Chemkin #11; RMG #75
#  Template reaction: Surface_Migration
#  Flux pairs: HCOO*(17), COOH*(18);
#  Estimated using an average for rate rule [Adsorbate1]
#  Euclidian distance = 0
#  family: Surface_Migration

# surface1 Reaction 11
surface_reaction('HCOO*(17) <=> COOH*(18)', [2.500000e+12, 0.0, 14.465],
                 id='surface1-11')
#  Reaction index: Chemkin #12; RMG #77
#  Template reaction: Surface_EleyRideal_Addition_Multiple_Bond
#  Flux pairs: H*(10), COOH*(18); CO2(4), COOH*(18);
#  Estimated using template [Adsorbate1;R=R] for rate rule [*H;R=R]
#  Euclidian distance = 1.0
#  Multiplied by reaction path degeneracy 2.0
#  family: Surface_EleyRideal_Addition_Multiple_Bond

# surface1 Reaction 12
surface_reaction('H*(10) + CO2(4) <=> COOH*(18)', stick(1.000000e-01, 0.0, 17.462),
                 id='surface1-12')
#  Reaction index: Chemkin #13; RMG #78
#  Template reaction: Surface_Adsorption_vdW
#  Flux pairs: HCOOH(7), HCOOH*(19); X(1), HCOOH*(19);
#  Estimated using an average for rate rule [O-H;VacantSite]
#  Euclidian distance = 0
#  family: Surface_Adsorption_vdW

# surface1 Reaction 13
surface_reaction('X(1) + HCOOH(7) <=> HCOOH*(19)', stick(1.000000e-01, 0.0, 0.0),
                 id='surface1-13')
#  Reaction index: Chemkin #14; RMG #79
#  Template reaction: Surface_Adsorption_vdW
#  Flux pairs: CH2O(6), CH2O*(20); X(1), CH2O*(20);
#  Estimated using an average for rate rule [O;VacantSite]
#  Euclidian distance = 0
#  family: Surface_Adsorption_vdW

# surface1 Reaction 14
surface_reaction('X(1) + CH2O(6) <=> CH2O*(20)', stick(1.000000e-01, 0.0, 0.0),
                 id='surface1-14')
#  Reaction index: Chemkin #15; RMG #81
#  Template reaction: Surface_EleyRideal_Addition_Multiple_Bond
#  Flux pairs: H*(10), CH3O*(21); CH2O(6), CH3O*(21);
#  Estimated using template [Adsorbate1;R=R] for rate rule [*H;R=R]
#  Euclidian distance = 1.0
#  family: Surface_EleyRideal_Addition_Multiple_Bond

# surface1 Reaction 15
surface_reaction('H*(10) + CH2O(6) <=> CH3O*(21)', stick(5.000000e-02, 0.0, 17.462),
                 id='surface1-15')
#  Reaction index: Chemkin #16; RMG #84
#  Template reaction: Surface_EleyRideal_Addition_Multiple_Bond
#  Flux pairs: OH*(12), CH3O2*(22); CH2O(6), CH3O2*(22);
#  Estimated using an average for rate rule [Adsorbate1;R=R]
#  Euclidian distance = 0
#  family: Surface_EleyRideal_Addition_Multiple_Bond

# surface1 Reaction 16
surface_reaction('OH*(12) + CH2O(6) <=> CH3O2*(22)', stick(5.000000e-02, 0.0, 17.462),
                 id='surface1-16')
#  Reaction index: Chemkin #17; RMG #85
#  Template reaction: Surface_EleyRideal_Addition_Multiple_Bond
#  Flux pairs: H*(10), CH3O2*(22); HCOOH(7), CH3O2*(22);
#  Estimated using template [Adsorbate1;R=R] for rate rule [*H;R=R]
#  Euclidian distance = 1.0
#  family: Surface_EleyRideal_Addition_Multiple_Bond

# surface1 Reaction 17
surface_reaction('H*(10) + HCOOH(7) <=> CH3O2*(22)', stick(5.000000e-02, 0.0, 17.462),
                 id='surface1-17')
#  Reaction index: Chemkin #18; RMG #88
#  Template reaction: Surface_Adsorption_vdW
#  Flux pairs: CH3OH(8), CH3OH*(23); X(1), CH3OH*(23);
#  Estimated using an average for rate rule [O-H;VacantSite]
#  Euclidian distance = 0
#  family: Surface_Adsorption_vdW

# surface1 Reaction 18
surface_reaction('X(1) + CH3OH(8) <=> CH3OH*(23)', stick(1.000000e-01, 0.0, 0.0),
                 id='surface1-18')
#  Reaction index: Chemkin #19; RMG #91
#  Template reaction: Surface_Adsorption_Dissociative_Double
#  Flux pairs: CO2(4), CO*(14); X(1), O*(11); X(1), O*(11);
#  Estimated using template [Adsorbate;VacantSite1;VacantSite2] for rate rule [CO2;VacantSite1;VacantSite2]
#  Euclidian distance = 2.0
#  Multiplied by reaction path degeneracy 2.0
#  family: Surface_Adsorption_Dissociative_Double

# surface1 Reaction 19
surface_reaction('X(1) + X(1) + CO2(4) <=> O*(11) + CO*(14)', stick(2.000000e-02, 0.0, 10.0),
                 id='surface1-19')
#  Reaction index: Chemkin #20; RMG #92
#  Template reaction: Surface_Adsorption_Dissociative
#  Flux pairs: H2O(5), OH*(12); X(1), H*(10); X(1), H*(10);
#  Estimated using template [O-H;VacantSite1;VacantSite2] for rate rule [H2O;VacantSite1;VacantSite2]
#  Euclidian distance = 1.0
#  Multiplied by reaction path degeneracy 2.0
#  family: Surface_Adsorption_Dissociative
