units(length='cm', time='s', quantity='mol', act_energy='kcal/mol')

ideal_gas(name='gas',
          elements="H D T C Ci O Oi N Ne Ar He Si S F Cl Br I X",
          species="""N2          Ne          H2(2)       CO(3)
                     CO2(4)      H2O(5)      CH2O(6)     HCOOH(7)
                     CH3OH(8)    HCOOCH3(9)  CH4(32)     CC(133)""",
          reactions='gas-*',
          transport='Mix',
          initial_state=state(temperature=300.0, pressure=OneAtm))

ideal_interface(name='surface1',
                elements="H D T C Ci O Oi N Ne Ar He Si S F Cl Br I X",
                species="""X(1)        H*(10)      O*(11)      OH*(12)
                          H2O*(13)    CO*(14)     CO2*(15)    HCO*(16)
                          HCOO*(17)   COOH*(18)   HCOOH*(19)  CH2O*(20)
                          CH3O*(21)   CH3O2*(22)  CH3OH*(23)  CH3X(33)
                          CH3OX(49)   SX(62)      C2H6X(130)  C2H5X(135)""",
                site_density=2.943e-09,
                phases="gas",
          reactions='surface1-*',
                initial_state=state(temperature=300.0, pressure=OneAtm))

#-------------------------------------------------------------------------------
# Element data
#-------------------------------------------------------------------------------

element(symbol='Ci', atomic_mass=13.003)
element(symbol='D', atomic_mass=2.014)
element(symbol='Oi', atomic_mass=17.999)
element(symbol='T', atomic_mass=3.016)
element(symbol='X', atomic_mass=195.083)
#-------------------------------------------------------------------------------
# Species data
#-------------------------------------------------------------------------------

species(name='N2',
        atoms='N:2',
        thermo=(NASA([200.00, 1000.00],
                     [ 3.53101000E+00, -1.23661000E-04, -5.02999000E-07,
                       2.43531000E-09, -1.40881000E-12, -1.04698000E+03,
                       2.96747000E+00]),
                NASA([1000.00, 6000.00],
                     [ 2.95258000E+00,  1.39690000E-03, -4.92632000E-07,
                       7.86010000E-11, -4.60755000E-15, -9.23949000E+02,
                       5.87189000E+00])),
        transport=gas_transport(geom='linear',
                                diam=3.621,
                                well_depth=97.53,
                                polar=1.76,
                                rot_relax=4.0))

species(name='Ne',
        atoms='Ne:1',
        thermo=(NASA([200.00, 1000.00],
                     [ 2.50000000E+00,  0.00000000E+00,  0.00000000E+00,
                       0.00000000E+00,  0.00000000E+00, -7.45375000E+02,
                       3.35532000E+00]),
                NASA([1000.00, 6000.00],
                     [ 2.50000000E+00,  0.00000000E+00,  0.00000000E+00,
                       0.00000000E+00,  0.00000000E+00, -7.45375000E+02,
                       3.35532000E+00])),
        transport=gas_transport(geom='atom',
                                diam=3.758,
                                well_depth=148.6))

species(name='H2(2)',
        atoms='H:2',
        thermo=(NASA([100.00, 1959.07],
                     [ 3.43536393E+00,  2.12711953E-04, -2.78628671E-07,
                       3.40270013E-10, -7.76039045E-14, -1.03135983E+03,
                      -3.90841661E+00]),
                NASA([1959.07, 5000.00],
                     [ 2.78818509E+00,  5.87615921E-04,  1.59022130E-07,
                      -5.52762536E-11,  4.34328120E-15, -5.96155632E+02,
                       1.12618494E-01])),
        transport=gas_transport(geom='linear',
                                diam=2.92,
                                well_depth=38.0,
                                polar=0.79,
                                rot_relax=280.0))

species(name='CO(3)',
        atoms='C:1 O:1',
        thermo=(NASA([100.00, 1571.65],
                     [ 3.56837950E+00, -8.52120978E-04,  2.48916580E-06,
                      -1.56329920E-09,  3.13591992E-13, -1.42842549E+04,
                       3.57912359E+00]),
                NASA([1571.65, 5000.00],
                     [ 2.91308000E+00,  1.64655944E-03, -6.88605521E-07,
                       1.21035372E-10, -7.84002800E-15, -1.41808916E+04,
                       6.71038000E+00])),
        transport=gas_transport(geom='linear',
                                diam=3.65,
                                well_depth=98.1,
                                polar=1.95,
                                rot_relax=1.8))

species(name='CO2(4)',
        atoms='C:1 O:2',
        thermo=(NASA([100.00, 978.22],
                     [ 3.28084453E+00,  2.50185640E-03,  8.08192142E-06,
                      -1.20510369E-08,  4.66542684E-12, -4.84008303E+04,
                       6.00081438E+00]),
                NASA([978.22, 5000.00],
                     [ 4.67427416E+00,  2.60962879E-03, -9.85683184E-07,
                       1.95712276E-10, -1.49834931E-14, -4.89512168E+04,
                      -2.11077406E+00])),
        transport=gas_transport(geom='linear',
                                diam=3.763,
                                well_depth=244.001,
                                polar=2.65,
                                rot_relax=2.1))

species(name='H2O(5)',
        atoms='H:2 O:1',
        thermo=(NASA([100.00, 1130.24],
                     [ 4.05763557E+00, -7.87932878E-04,  2.90876518E-06,
                      -1.47517698E-09,  2.12838441E-13, -3.02815866E+04,
                      -3.11363105E-01]),
                NASA([1130.24, 5000.00],
                     [ 2.84325231E+00,  2.75108244E-03, -7.81029811E-07,
                       1.07243254E-10, -5.79389106E-15, -2.99586136E+04,
                       5.91040933E+00])),
        transport=gas_transport(geom='nonlinear',
                                diam=2.605,
                                well_depth=572.402,
                                dipole=1.844,
                                rot_relax=4.0))

species(name='CH2O(6)',
        atoms='C:1 H:2 O:1',
        thermo=(NASA([100.00, 1070.44],
                     [ 4.12927426E+00, -4.08396964E-03,  2.03227863E-05,
                      -1.83522406E-08,  5.37968075E-12, -1.44294638E+04,
                       3.22419815E+00]),
                NASA([1070.44, 5000.00],
                     [ 2.21174493E+00,  7.94262282E-03, -3.34191131E-06,
                       6.28466926E-10, -4.40427775E-14, -1.42974546E+04,
                       1.13047824E+01])),
        transport=gas_transport(geom='nonlinear',
                                diam=3.59,
                                well_depth=498.002,
                                rot_relax=2.0))

species(name='HCOOH(7)',
        atoms='C:1 H:2 O:2',
        thermo=(NASA([100.00, 993.73],
                     [ 3.76240530E+00, -9.43851284E-04,  3.38778513E-05,
                      -4.04983246E-08,  1.43986458E-11, -4.68212102E+04,
                       7.63276205E+00]),
                NASA([993.73, 5000.00],
                     [ 5.64500260E+00,  7.55182043E-03, -3.20851393E-06,
                       6.58918924E-10, -5.05055117E-14, -4.79890022E+04,
                      -5.43104179E+00])),
        transport=gas_transport(geom='nonlinear',
                                diam=3.626,
                                well_depth=481.8,
                                dipole=1.7,
                                rot_relax=1.0))

species(name='CH3OH(8)',
        atoms='C:1 H:4 O:1',
        thermo=(NASA([100.00, 1035.75],
                     [ 3.84006541E+00,  1.38238147E-03,  1.91668527E-05,
                      -2.01570364E-08,  6.39109354E-12, -2.56083089E+04,
                       5.90976964E+00]),
                NASA([1035.75, 5000.00],
                     [ 2.79182744E+00,  1.15828112E-02, -4.51553413E-06,
                       8.21210187E-10, -5.67066120E-14, -2.57211607E+04,
                       9.41070357E+00])),
        transport=gas_transport(geom='nonlinear',
                                diam=3.626,
                                well_depth=481.802,
                                rot_relax=1.0))

species(name='HCOOCH3(9)',
        atoms='C:2 H:4 O:2',
        thermo=(NASA([100.00, 1141.77],
                     [ 3.28124211E+00,  1.13179513E-02,  1.84481093E-05,
                      -2.41949346E-08,  7.75152330E-12, -4.46725569E+04,
                       1.20363387E+01]),
                NASA([1141.77, 5000.00],
                     [ 4.90982191E+00,  1.87530844E-02, -8.58334844E-06,
                       1.66848767E-09, -1.18613239E-13, -4.59009734E+04,
                       2.12594868E-01])),
        transport=gas_transport(geom='nonlinear',
                                diam=5.234,
                                well_depth=377.356))

species(name='CH4(32)',
        atoms='C:1 H:4',
        thermo=(NASA([100.00, 1084.12],
                     [ 4.20541283E+00, -5.35554587E-03,  2.51122331E-05,
                      -2.13761692E-08,  5.97519324E-12, -1.01619432E+04,
                      -9.21270597E-01]),
                NASA([1084.12, 5000.00],
                     [ 9.08279610E-01,  1.14540629E-02, -4.57172537E-06,
                       8.29188673E-10, -5.66312440E-14, -9.71998052E+03,
                       1.39930158E+01])),
        transport=gas_transport(geom='nonlinear',
                                diam=3.746,
                                well_depth=141.4,
                                polar=2.6,
                                rot_relax=13.0))

species(name='CC(133)',
        atoms='C:2 H:6',
        thermo=(NASA([100.00, 1012.42],
                     [ 3.72239865E+00,  1.65077010E-03,  3.44177937E-05,
                      -3.76861352E-08,  1.24451983E-11, -1.15575904E+04,
                       4.68245945E+00]),
                NASA([1012.42, 5000.00],
                     [ 2.82845780E+00,  1.73040987E-02, -6.73336647E-06,
                       1.23742590E-09, -8.65681088E-14, -1.19977975E+04,
                       5.93825672E+00])),
        transport=gas_transport(geom='nonlinear',
                                diam=4.302,
                                well_depth=252.301,
                                rot_relax=1.5))

species(name='X(1)',
        atoms='X:1',
        thermo=(NASA([100.00, 1554.81],
                     [ 7.10129478E-03, -4.25609798E-05,  8.98507278E-08,
                      -7.80169595E-11,  2.32458299E-14, -8.76096726E-01,
                      -3.11207473E-02]),
                NASA([1554.81, 5000.00],
                     [ 1.60302910E-01, -2.52239722E-04,  1.14183461E-07,
                      -1.21476333E-11,  3.85825979E-16, -7.08116648E+01,
                      -9.09545048E-01])))

species(name='H*(10)',
        atoms='H:1 X:1',
        thermo=(NASA([100.00, 952.90],
                     [-3.80945029E-01,  5.47203694E-03,  2.61004478E-06,
                      -9.65086662E-09,  4.64002394E-12, -1.40557128E+03,
                       1.01718287E+00]),
                NASA([952.90, 5000.00],
                     [ 2.80332808E+00, -5.40928806E-04,  4.99439071E-07,
                      -7.54799604E-11,  3.06635509E-15, -2.34629161E+03,
                      -1.59432943E+01])))

species(name='O*(11)',
        atoms='O:1 X:1',
        thermo=(NASA([100.00, 888.26],
                     [-7.59013067E-01,  1.89868498E-02, -3.82473745E-05,
                       3.43558395E-08, -1.13974372E-11, -2.18356104E+04,
                       1.76017396E+00]),
                NASA([888.26, 5000.00],
                     [ 1.89893619E+00,  2.03295425E-03, -1.19976574E-06,
                       2.32680659E-10, -1.53508282E-14, -2.21111564E+04,
                      -9.64104080E+00])))

species(name='OH*(12)',
        atoms='H:1 O:1 X:1',
        thermo=(NASA([100.00, 914.56],
                     [-1.29517569E+00,  3.36481072E-02, -7.07736026E-05,
                       6.54340620E-08, -2.19421960E-11, -2.16453901E+04,
                       4.37638552E+00]),
                NASA([914.56, 5000.00],
                     [ 2.43526719E+00,  4.64625828E-03, -2.40002857E-06,
                       4.26388441E-10, -2.60638518E-14, -2.17971860E+04,
                      -1.03871217E+01])))

species(name='H2O*(13)',
        atoms='H:2 O:1 X:1',
        thermo=(NASA([100.00, 912.85],
                     [-1.34340911E+00,  3.66696506E-02, -7.99484365E-05,
                       7.74130362E-08, -2.68667732E-11, -3.23490301E+04,
                       1.10237941E+01]),
                NASA([912.85, 5000.00],
                     [ 1.12161089E+00,  8.16635457E-03, -4.02355795E-06,
                       7.20415403E-10, -4.51437729E-14, -3.20615323E+04,
                       3.39603482E+00])))

species(name='CO*(14)',
        atoms='C:1 O:1 X:1',
        thermo=(NASA([100.00, 891.33],
                     [-1.38214121E+00,  3.75305409E-02, -8.29758476E-05,
                       8.09701555E-08, -2.85470829E-11, -2.25369949E+04,
                       4.35447670E+00]),
                NASA([891.33, 5000.00],
                     [ 1.38090660E+00,  8.05719010E-03, -4.64308960E-06,
                       8.91170699E-10, -5.90048361E-14, -2.23513206E+04,
                      -4.85318015E+00])))

species(name='CO2*(15)',
        atoms='C:1 O:2 X:1',
        thermo=(NASA([100.00, 875.18],
                     [-1.46245512E+00,  3.78468836E-02, -7.61215947E-05,
                       7.18309738E-08, -2.50678974E-11, -5.24217575E+04,
                       1.20603525E+01]),
                NASA([875.18, 5000.00],
                     [ 2.04189637E+00,  9.07405392E-03, -4.94338559E-06,
                       9.56497343E-10, -6.46914837E-14, -5.25466237E+04,
                      -1.58790894E+00])))

species(name='HCO*(16)',
        atoms='C:1 H:1 O:1 X:1',
        thermo=(NASA([100.00, 873.23],
                     [-1.43676851E+00,  3.69240048E-02, -7.17890842E-05,
                       6.73513128E-08, -2.35168871E-11, -2.16948349E+04,
                       8.27552319E+00]),
                NASA([873.23, 5000.00],
                     [ 1.83273887E+00,  1.00779869E-02, -5.28539908E-06,
                       1.01353586E-09, -6.85197667E-14, -2.18132991E+04,
                      -4.46356931E+00])))

species(name='HCOO*(17)',
        atoms='C:1 H:1 O:2 X:1',
        thermo=(NASA([100.00, 830.10],
                     [-1.76227359E+00,  4.29174175E-02, -7.40759958E-05,
                       6.53456352E-08, -2.23035163E-11, -5.60364020E+04,
                       6.20750741E+00]),
                NASA([830.10, 5000.00],
                     [ 3.26718695E+00,  1.20318706E-02, -6.24860859E-06,
                       1.22139898E-09, -8.47340539E-14, -5.66422760E+04,
                      -1.57401412E+01])))

species(name='COOH*(18)',
        atoms='C:1 H:1 O:2 X:1',
        thermo=(NASA([100.00, 816.90],
                     [-1.63327151E+00,  3.87823780E-02, -6.41967410E-05,
                       5.36653451E-08, -1.74576108E-11, -5.15539618E+04,
                       1.19827899E+01]),
                NASA([816.90, 5000.00],
                     [ 3.90719676E+00,  8.95136583E-03, -4.45969420E-06,
                       8.65653131E-10, -6.00138043E-14, -5.23690155E+04,
                      -1.30745009E+01])))

species(name='HCOOH*(19)',
        atoms='C:1 H:2 O:2 X:1',
        thermo=(NASA([100.00, 855.70],
                     [-1.86633608E+00,  4.64165803E-02, -8.23166730E-05,
                       7.46408496E-08, -2.57980879E-11, -5.32767854E+04,
                       1.72794169E+01]),
                NASA([855.70, 5000.00],
                     [ 2.69766441E+00,  1.43100198E-02, -7.15290030E-06,
                       1.37052264E-09, -9.36313219E-14, -5.36634901E+04,
                      -1.72360683E+00])))

species(name='CH2O*(20)',
        atoms='C:1 H:2 O:1 X:1',
        thermo=(NASA([100.00, 879.31],
                     [-1.46699541E+00,  4.13875020E-02, -8.87629201E-05,
                       9.10129307E-08, -3.36615820E-11, -2.03002400E+04,
                       1.57179240E+01]),
                NASA([879.31, 5000.00],
                     [-8.92865734E-01,  1.66195401E-02, -8.71589618E-06,
                       1.66815094E-09, -1.12502625E-13, -1.95446593E+04,
                       1.78924836E+01])))

species(name='CH3O*(21)',
        atoms='C:1 H:3 O:1 X:1',
        thermo=(NASA([100.00, 857.67],
                     [-1.68418916E+00,  4.28019373E-02, -7.50766517E-05,
                       7.03657026E-08, -2.50907699E-11, -2.23137139E+04,
                       7.76411689E+00]),
                NASA([857.67, 5000.00],
                     [ 1.14786607E+00,  1.71346097E-02, -8.39649340E-06,
                       1.59810593E-09, -1.08977918E-13, -2.23412548E+04,
                      -2.79260653E+00])))

species(name='CH3O2*(22)',
        atoms='C:1 H:3 O:2 X:1',
        thermo=(NASA([100.00, 932.26],
                     [ 3.21916260E+00,  6.71721959E-03,  3.72271891E-05,
                      -5.73634000E-08,  2.36261123E-11, -4.74893811E+04,
                      -6.14518362E+00]),
                NASA([932.26, 5000.00],
                     [ 1.03102381E+01,  3.04296700E-03,  9.70765049E-08,
                      -3.19266828E-11, -2.13472558E-15, -4.99740137E+04,
                      -4.60928893E+01])))

species(name='CH3OH*(23)',
        atoms='C:1 H:4 O:1 X:1',
        thermo=(NASA([100.00, 850.42],
                     [-1.64006635E+00,  4.09972282E-02, -6.66149127E-05,
                       6.12087050E-08, -2.17721753E-11, -3.05087373E+04,
                       1.38244223E+01]),
                NASA([850.42, 5000.00],
                     [ 1.01830221E+00,  1.82967464E-02, -8.58984036E-06,
                       1.62233177E-09, -1.10734058E-13, -3.05921619E+04,
                       3.59792542E+00])))

species(name='CH3X(33)',
        atoms='C:1 H:3 X:1',
        thermo=(NASA([100.00, 848.32],
                     [-1.21088636E+00,  2.92388273E-02, -4.49001550E-05,
                       3.85995644E-08, -1.30354077E-11, -1.29919448E+02,
                       6.80933216E+00]),
                NASA([848.32, 5000.00],
                     [ 1.62287004E+00,  1.12987964E-02, -5.08321081E-06,
                       9.46843720E-10, -6.42894124E-14, -4.45968447E+02,
                      -5.42479488E+00])))

species(name='CH3OX(49)',
        atoms='C:1 H:3 O:1 X:1',
        thermo=(NASA([100.00, 813.96],
                     [-1.68231069E+00,  3.97248049E-02, -5.96102084E-05,
                       4.86912616E-08, -1.58044953E-11, -2.91607670E+04,
                       8.26684287E+00]),
                NASA([813.96, 5000.00],
                     [ 3.25577436E+00,  1.30435128E-02, -5.99160672E-06,
                       1.13138904E-09, -7.77153715E-14, -2.98846689E+04,
                      -1.40487945E+01])))

species(name='SX(62)',
        atoms='C:2 H:4 O:2 X:1',
        thermo=(NASA([100.00, 820.14],
                     [-2.35590866E+00,  5.79262246E-02, -9.10496450E-05,
                       8.21994061E-08, -2.93560975E-11, -5.61090331E+04,
                       1.65726069E+01]),
                NASA([820.14, 5000.00],
                     [ 2.03701022E+00,  2.57557354E-02, -1.25584549E-05,
                       2.42106342E-09, -1.67873269E-13, -5.64682179E+04,
                      -1.54650913E+00])))

species(name='C2H6X(130)',
        atoms='C:2 H:6 X:1',
        thermo=(NASA([100.00, 826.23],
                     [-1.73429727E+00,  4.32694030E-02, -6.15077016E-05,
                       5.73019216E-08, -2.14175667E-11, -1.40653282E+04,
                       1.90799033E+01]),
                NASA([826.23, 5000.00],
                     [-4.51940711E-01,  2.66241994E-02, -1.23404905E-05,
                       2.34090374E-09, -1.61300521E-13, -1.39209930E+04,
                       1.52938772E+01])))

species(name='C2H5X(135)',
        atoms='C:2 H:5 X:1',
        thermo=(NASA([100.00, 803.86],
                     [-1.64624674E+00,  3.89625634E-02, -4.31126047E-05,
                       2.97073401E-08, -8.80208053E-12, -4.11359400E+03,
                       9.27320929E+00]),
                NASA([803.86, 5000.00],
                     [ 1.97599269E+00,  2.09382531E-02, -9.47915393E-06,
                       1.81392555E-09, -1.27206008E-13, -4.69594609E+03,
                      -7.41114190E+00])))

#-------------------------------------------------------------------------------
# Reaction data
#-------------------------------------------------------------------------------
#  Reaction index: Chemkin #1; RMG #49
#  Template reaction: 1,2_Insertion_CO
#  Flux pairs: CO(3), CH2O(6); H2(2), CH2O(6);
#  Matched reaction 2 H2 + CO <=> CH2O in 1,2_Insertion_CO/training
#  This reaction matched rate rule [CO;H2]
#  family: 1,2_Insertion_CO

# Reaction 1
reaction('H2(2) + CO(3) <=> CH2O(6)', [2.890000e+09, 1.16, 82.1],
         id='gas-1')
#  Reaction index: Chemkin #2; RMG #51
#  Template reaction: 1,2_Insertion_CO
#  Flux pairs: CO(3), HCOOH(7); H2O(5), HCOOH(7);
#  Estimated using an average for rate rule [CO;RO_H]
#  Euclidian distance = 0
#  Multiplied by reaction path degeneracy 2.0
#  family: 1,2_Insertion_CO

# Reaction 2
reaction('H2O(5) + CO(3) <=> HCOOH(7)', [2.540000e-01, 3.7, 53.36],
         id='gas-2')
#  Reaction index: Chemkin #3; RMG #52
#  Template reaction: 1,3_Insertion_CO2
#  Flux pairs: CO2(4), HCOOH(7); H2(2), HCOOH(7);
#  Matched reaction 0 H2 + CO2 <=> CH2O2 in 1,3_Insertion_CO2/training
#  This reaction matched rate rule [Root_N-5CbCdCsHN->Cs_4CbCdCsHN->H_N-5CbCdHN->Cd]
#  family: 1,3_Insertion_CO2

# Reaction 3
reaction('H2(2) + CO2(4) <=> HCOOH(7)', [1.510000e+09, 1.23, 73.9],
         id='gas-3')
#  Reaction index: Chemkin #4; RMG #61
#  Template reaction: 1,2_Insertion_CO
#  Flux pairs: CO(3), HCOOCH3(9); CH3OH(8), HCOOCH3(9);
#  Matched reaction 7 CH4O + CO <=> C2H4O2 in 1,2_Insertion_CO/training
#  This reaction matched rate rule [CO;CsO_H]
#  family: 1,2_Insertion_CO

# Reaction 4
reaction('CO(3) + CH3OH(8) <=> HCOOCH3(9)', [1.270000e-01, 3.7, 53.36],
         id='gas-4')
#  Reaction index: Chemkin #5; RMG #63
#  Template reaction: 1,3_Insertion_CO2
#  Flux pairs: CO2(4), HCOOCH3(9); CH4(32), HCOOCH3(9);
#  Estimated from node Root_5CbCdCsHN->Cs_N-4CbCdCsHN->Cs
#  Multiplied by reaction path degeneracy 8.0

# Reaction 5
reaction('CO2(4) + CH4(32) <=> HCOOCH3(9)', [3.192624e-01, 3.391, 85.307],
         id='gas-5')
#  Reaction index: Chemkin #1; RMG #31
#  Library reaction: Surface/CPOX_Pt/Deutschmann2006_adjusted
#  Flux pairs: H2(2), H*(10); X(1), H*(10); X(1), H*(10);

# surface1 Reaction 1
surface_reaction('X(1) + X(1) + H2(2) <=> H*(10) + H*(10)', stick(4.600000e-02, 0.0, 0.0),
                 id='surface1-1')
#  Reaction index: Chemkin #2; RMG #44
#  Library reaction: Surface/CPOX_Pt/Deutschmann2006_adjusted
#  Flux pairs: OH*(12), O*(11); X(1), H*(10);

# surface1 Reaction 2
surface_reaction('X(1) + OH*(12) <=> O*(11) + H*(10)', [7.390000e+19, 0.0, 18.475],
                 id='surface1-2')
#  Reaction index: Chemkin #3; RMG #34
#  Library reaction: Surface/CPOX_Pt/Deutschmann2006_adjusted
#  Flux pairs: X(1), H2O*(13); H2O(5), H2O*(13);

# surface1 Reaction 3
surface_reaction('X(1) + H2O(5) <=> H2O*(13)', stick(7.500000e-01, 0.0, 0.0),
                 id='surface1-3')
#  Reaction index: Chemkin #4; RMG #45
#  Library reaction: Surface/CPOX_Pt/Deutschmann2006_adjusted
#  Flux pairs: H2O*(13), OH*(12); X(1), H*(10);

# surface1 Reaction 4
surface_reaction('X(1) + H2O*(13) <=> H*(10) + OH*(12)', [1.150000e+19, 0.0, 24.235],
                 id='surface1-4')
#  Reaction index: Chemkin #5; RMG #46
#  Library reaction: Surface/CPOX_Pt/Deutschmann2006_adjusted
#  Flux pairs: H2O*(13), OH*(12); O*(11), OH*(12);

# surface1 Reaction 5
surface_reaction('O*(11) + H2O*(13) <=> OH*(12) + OH*(12)', [1.000000e+20, 0.0, 21.63],
                 id='surface1-5')
#  Reaction index: Chemkin #6; RMG #37
#  Library reaction: Surface/CPOX_Pt/Deutschmann2006_adjusted
#  Flux pairs: CO*(14), X(1); CO*(14), CO(3);

# surface1 Reaction 6
surface_reaction('CO*(14) <=> X(1) + CO(3)', [1.000000e+11, 0.0, 40.511],
                 id='surface1-6')
#  Reaction index: Chemkin #7; RMG #35
#  Library reaction: Surface/CPOX_Pt/Deutschmann2006_adjusted
#  Flux pairs: X(1), CO2*(15); CO2(4), CO2*(15);

# surface1 Reaction 7
surface_reaction('X(1) + CO2(4) <=> CO2*(15)', stick(5.000000e-03, 0.0, 0.0),
                 id='surface1-7')
#  Reaction index: Chemkin #8; RMG #39
#  Library reaction: Surface/CPOX_Pt/Deutschmann2006_adjusted
#  Flux pairs: CO*(14), CO2*(15); O*(11), X(1);

# surface1 Reaction 8
surface_reaction('O*(11) + CO*(14) <=> X(1) + CO2*(15)', [3.700000e+21, 0.0, 28.107],
                 id='surface1-8')
#  Reaction index: Chemkin #9; RMG #40
#  Library reaction: Surface/CPOX_Pt/Deutschmann2006_adjusted
#  Flux pairs: CO*(14), CO2*(15); OH*(12), H*(10);

# surface1 Reaction 9
surface_reaction('OH*(12) + CO*(14) <=> H*(10) + CO2*(15)', [1.000000e+19, 0.0, 9.25],
                 id='surface1-9')
#  Reaction index: Chemkin #10; RMG #74
#  Template reaction: Surface_EleyRideal_Addition_Multiple_Bond
#  Flux pairs: H*(10), HCOO*(17); CO2(4), HCOO*(17);
#  Estimated using template [Adsorbate1;R=R] for rate rule [*H;R=R]
#  Euclidian distance = 1.0
#  Multiplied by reaction path degeneracy 2.0
#  family: Surface_EleyRideal_Addition_Multiple_Bond

# surface1 Reaction 10
surface_reaction('H*(10) + CO2(4) <=> HCOO*(17)', stick(1.000000e-01, 0.0, 17.462),
                 id='surface1-10')
#  Reaction index: Chemkin #11; RMG #75
#  Template reaction: Surface_Migration
#  Flux pairs: HCOO*(17), COOH*(18);
#  Estimated using an average for rate rule [Adsorbate1]
#  Euclidian distance = 0
#  family: Surface_Migration

# surface1 Reaction 11
surface_reaction('HCOO*(17) <=> COOH*(18)', [2.500000e+12, 0.0, 14.465],
                 id='surface1-11')
#  Reaction index: Chemkin #12; RMG #77
#  Template reaction: Surface_EleyRideal_Addition_Multiple_Bond
#  Flux pairs: H*(10), COOH*(18); CO2(4), COOH*(18);
#  Estimated using template [Adsorbate1;R=R] for rate rule [*H;R=R]
#  Euclidian distance = 1.0
#  Multiplied by reaction path degeneracy 2.0
#  family: Surface_EleyRideal_Addition_Multiple_Bond

# surface1 Reaction 12
surface_reaction('H*(10) + CO2(4) <=> COOH*(18)', stick(1.000000e-01, 0.0, 17.462),
                 id='surface1-12')
#  Reaction index: Chemkin #13; RMG #78
#  Template reaction: Surface_Adsorption_vdW
#  Flux pairs: HCOOH(7), HCOOH*(19); X(1), HCOOH*(19);
#  Estimated using an average for rate rule [O-H;VacantSite]
#  Euclidian distance = 0
#  family: Surface_Adsorption_vdW

# surface1 Reaction 13
surface_reaction('X(1) + HCOOH(7) <=> HCOOH*(19)', stick(1.000000e-01, 0.0, 0.0),
                 id='surface1-13')
#  Reaction index: Chemkin #14; RMG #79
#  Template reaction: Surface_Adsorption_vdW
#  Flux pairs: CH2O(6), CH2O*(20); X(1), CH2O*(20);
#  Estimated using an average for rate rule [O;VacantSite]
#  Euclidian distance = 0
#  family: Surface_Adsorption_vdW

# surface1 Reaction 14
surface_reaction('X(1) + CH2O(6) <=> CH2O*(20)', stick(1.000000e-01, 0.0, 0.0),
                 id='surface1-14')
#  Reaction index: Chemkin #15; RMG #81
#  Template reaction: Surface_EleyRideal_Addition_Multiple_Bond
#  Flux pairs: H*(10), CH3O*(21); CH2O(6), CH3O*(21);
#  Estimated using template [Adsorbate1;R=R] for rate rule [*H;R=R]
#  Euclidian distance = 1.0
#  family: Surface_EleyRideal_Addition_Multiple_Bond

# surface1 Reaction 15
surface_reaction('H*(10) + CH2O(6) <=> CH3O*(21)', stick(5.000000e-02, 0.0, 17.462),
                 id='surface1-15')
#  Reaction index: Chemkin #16; RMG #84
#  Template reaction: Surface_EleyRideal_Addition_Multiple_Bond
#  Flux pairs: OH*(12), CH3O2*(22); CH2O(6), CH3O2*(22);
#  Estimated using an average for rate rule [Adsorbate1;R=R]
#  Euclidian distance = 0
#  family: Surface_EleyRideal_Addition_Multiple_Bond

# surface1 Reaction 16
surface_reaction('OH*(12) + CH2O(6) <=> CH3O2*(22)', stick(5.000000e-02, 0.0, 17.462),
                 id='surface1-16')
#  Reaction index: Chemkin #17; RMG #85
#  Template reaction: Surface_EleyRideal_Addition_Multiple_Bond
#  Flux pairs: H*(10), CH3O2*(22); HCOOH(7), CH3O2*(22);
#  Estimated using template [Adsorbate1;R=R] for rate rule [*H;R=R]
#  Euclidian distance = 1.0
#  family: Surface_EleyRideal_Addition_Multiple_Bond

# surface1 Reaction 17
surface_reaction('H*(10) + HCOOH(7) <=> CH3O2*(22)', stick(5.000000e-02, 0.0, 17.462),
                 id='surface1-17')
#  Reaction index: Chemkin #18; RMG #88
#  Template reaction: Surface_Adsorption_vdW
#  Flux pairs: CH3OH(8), CH3OH*(23); X(1), CH3OH*(23);
#  Estimated using an average for rate rule [O-H;VacantSite]
#  Euclidian distance = 0
#  family: Surface_Adsorption_vdW

# surface1 Reaction 18
surface_reaction('X(1) + CH3OH(8) <=> CH3OH*(23)', stick(1.000000e-01, 0.0, 0.0),
                 id='surface1-18')
#  Reaction index: Chemkin #19; RMG #91
#  Template reaction: Surface_Adsorption_Dissociative_Double
#  Flux pairs: CO2(4), CO*(14); X(1), O*(11); X(1), O*(11);
#  Estimated using template [Adsorbate;VacantSite1;VacantSite2] for rate rule [CO2;VacantSite1;VacantSite2]
#  Euclidian distance = 2.0
#  Multiplied by reaction path degeneracy 2.0
#  family: Surface_Adsorption_Dissociative_Double

# surface1 Reaction 19
surface_reaction('X(1) + X(1) + CO2(4) <=> O*(11) + CO*(14)', stick(2.000000e-02, 0.0, 10.0),
                 id='surface1-19')
#  Reaction index: Chemkin #20; RMG #92
#  Template reaction: Surface_Adsorption_Dissociative
#  Flux pairs: H2O(5), OH*(12); X(1), H*(10); X(1), H*(10);
#  Estimated using template [O-H;VacantSite1;VacantSite2] for rate rule [H2O;VacantSite1;VacantSite2]
#  Euclidian distance = 1.0
#  Multiplied by reaction path degeneracy 2.0
#  family: Surface_Adsorption_Dissociative
